### 
### Created by X-TOOL on Fri Dec  5 23:42:09 2003
### 

@<TRIPOS>MOLECULE
1ppc_ligand.crystal
   69    72     1     0     0
SMALL
USER_CHARGES


@<TRIPOS>ATOM
      1 S          -5.8270    4.7820   25.9170 S.o2      1 SUB1        0.050
      2 O1         -6.8830    5.7670   26.4350 O.2       1 SUB1        0.130
      3 O2         -6.3850    3.3620   25.9520 O.2       1 SUB1        0.105
      4 C1         -3.7610    3.9040   27.5800 C.ar      1 SUB1        0.167
      5 C2         -4.3660    4.9560   26.9430 C.ar      1 SUB1        0.096
      6 C3         -3.8740    6.2180   27.1290 C.ar      1 SUB1        0.240
      7 C4         -2.8230    6.4310   27.9910 C.ar      1 SUB1        0.264
      8 C5         -1.1660    5.6080   29.4710 C.ar      1 SUB1        0.265
      9 C6         -0.5380    4.5410   30.0870 C.ar      1 SUB1        0.222
     10 C7         -1.0030    3.2540   29.8900 C.ar      1 SUB1        0.224
     11 C8         -2.0960    3.0180   29.0710 C.ar      1 SUB1        0.174
     12 C9         -2.6860    4.0860   28.4240 C.ar      1 SUB1        0.177
     13 C10        -2.2320    5.3650   28.6300 C.ar      1 SUB1        0.215
     14 N          -5.5520    5.0200   24.2980 N.am      1 SUB1        0.057
     15 CA         -4.6090    4.0870   23.7300 C.3       1 SUB1        0.056
     16 C          -3.2810    4.7140   23.3230 C.2       1 SUB1        0.108
     17 O          -2.9600    5.8630   23.6500 O.2       1 SUB1        0.216
     18 C          -0.4280    2.9070   22.1940 C.2       1 SUB1        0.111
     19 CA         -1.2700    4.1600   21.9520 C.3       1 SUB1        0.131
     20 CB         -1.3330    4.4800   20.4500 C.3       1 SUB1        0.147
     21 CG         -2.0020    5.8060   20.1500 C.ar      1 SUB1        0.175
     22 CD1        -3.3810    5.9010   20.0920 C.ar      1 SUB1        0.225
     23 CD2        -1.2360    6.9410   20.0230 C.ar      1 SUB1        0.264
     24 CE1        -3.9930    7.1200   19.8710 C.ar      1 SUB1        0.248
     25 CE2        -1.8530    8.1550   19.7970 C.ar      1 SUB1        0.271
     26 CZ         -3.2370    8.2680   19.7390 C.ar      1 SUB1        0.249
     27 CF         -3.8330    9.5270   19.5790 C.cat     1 SUB1        0.238
     28 O          -0.2020    2.1160   21.2720 O.2       1 SUB1        0.136
     29 N          -2.5950    3.9030   22.4990 N.am      1 SUB1        0.093
     30 NG1        -5.1270    9.7230   19.8940 N.pl3     1 SUB1        0.363
     31 NG2        -3.0670   10.5440   19.1670 N.pl3     1 SUB1        0.336
     32 N1          0.0740    2.6870   23.4200 N.am      1 SUB1        0.145
     33 C2          0.0190    3.6720   24.4880 C.3       1 SUB1        0.168
     34 C3         -0.7040    3.0330   25.6500 C.3       1 SUB1        0.204
     35 C4          0.1550    1.8800   26.1460 C.3       1 SUB1        0.216
     36 C5          0.3010    0.9040   24.9820 C.3       1 SUB1        0.186
     37 C6          0.9050    1.5360   23.7450 C.3       1 SUB1        0.146
     38 H          -5.9971    5.7409   23.7668 H         1 SUB1        0.000
     39 HA1        -4.4070    3.3034   24.4751 H         1 SUB1        0.000
     40 HA2        -5.0655    3.6350   22.8371 H         1 SUB1        0.000
     41 H          -4.1381    2.9011   27.4157 H         1 SUB1        0.000
     42 H          -4.3133    7.0533   26.5957 H         1 SUB1        0.000
     43 H          -2.4608    7.4375   28.1666 H         1 SUB1        0.000
     44 H          -0.8251    6.6219   29.6467 H         1 SUB1        0.000
     45 H           0.3206    4.7141   30.7256 H         1 SUB1        0.000
     46 H          -0.5088    2.4229   30.3800 H         1 SUB1        0.000
     47 H          -2.4809    2.0130   28.9406 H         1 SUB1        0.000
     48 H          -0.8185    5.0147   22.4769 H         1 SUB1        0.000
     49 H          -1.8973    3.6817   19.9458 H         1 SUB1        0.000
     50 H          -0.3067    4.5090   20.0553 H         1 SUB1        0.000
     51 H          -3.9867    5.0113   20.2211 H         1 SUB1        0.000
     52 H          -0.1563    6.8828   20.0998 H         1 SUB1        0.000
     53 H          -5.0733    7.1755   19.8008 H         1 SUB1        0.000
     54 H          -1.2436    9.0412   19.6616 H         1 SUB1        0.000
     55 H          -3.0352    3.0440   22.2375 H         1 SUB1        0.000
     56 H          -5.5517   10.6533   19.7713 H         1 SUB1        0.000
     57 H          -5.6924    8.9427   20.2577 H         1 SUB1        0.000
     58 H          -2.0783   10.3806   18.9290 H         1 SUB1        0.000
     59 H          -3.4661   11.4902   19.0878 H         1 SUB1        0.000
     60 H          -0.5274    4.5646   24.1494 H         1 SUB1        0.000
     61 H           1.0375    3.9580   24.7895 H         1 SUB1        0.000
     62 H          -1.6839    2.6566   25.3213 H         1 SUB1        0.000
     63 H          -0.8452    3.7692   26.4550 H         1 SUB1        0.000
     64 H          -0.3334    1.3832   26.9973 H         1 SUB1        0.000
     65 H           1.1435    2.2504   26.4554 H         1 SUB1        0.000
     66 H          -0.6953    0.5152   24.7248 H         1 SUB1        0.000
     67 H           0.9476    0.0734   25.3013 H         1 SUB1        0.000
     68 H           1.9370    1.8578   23.9483 H         1 SUB1        0.000
     69 H           0.9022    0.8180   22.9117 H         1 SUB1        0.000
@<TRIPOS>BOND
     1   15   14 1  
     2   16   15 1  
     3   16   17 2  
     4    1    2 2  
     5    1    3 2  
     6    1    5 1  
     7   14    1 1  
     8    5    6 ar 
     9    6    7 ar 
    10    7   13 ar 
    11    8    9 ar 
    12   13    8 ar 
    13    9   10 ar 
    14   11   10 ar 
    15   12   11 ar 
    16   13   12 ar 
    17   19   18 1  
    18   18   28 2  
    19   18   32 am 
    20   19   20 1  
    21   29   19 1  
    22   20   21 1  
    23   21   22 ar 
    24   22   24 ar 
    25   21   23 ar 
    26   23   25 ar 
    27   24   26 ar 
    28   25   26 ar 
    29   26   27 1  
    30   27   30 ar 
    31   27   31 ar 
    32   29   16 am 
    33   32   33 1  
    34   32   37 1  
    35   33   34 1  
    36   34   35 1  
    37   35   36 1  
    38   36   37 1  
    39   12    4 ar 
    40    5    4 ar 
    41   14   38 1  
    42   15   39 1  
    43   15   40 1  
    44    4   41 1  
    45    6   42 1  
    46    7   43 1  
    47    8   44 1  
    48    9   45 1  
    49   10   46 1  
    50   11   47 1  
    51   19   48 1  
    52   20   49 1  
    53   20   50 1  
    54   22   51 1  
    55   23   52 1  
    56   24   53 1  
    57   25   54 1  
    58   29   55 1  
    59   30   56 1  
    60   30   57 1  
    61   31   58 1  
    62   31   59 1  
    63   33   60 1  
    64   33   61 1  
    65   34   62 1  
    66   34   63 1  
    67   35   64 1  
    68   35   65 1  
    69   36   66 1  
    70   36   67 1  
    71   37   68 1  
    72   37   69 1  
@<TRIPOS>SUBSTRUCTURE
     1 SUB1        1 GROUP

