### 
### Created by X-TOOL on Fri Dec  5 23:42:09 2003
### 

@<TRIPOS>MOLECULE
1ppc-ligand.1ppc.017
   69    72     1     0     0
SMALL
USER_CHARGES


@<TRIPOS>ATOM
      1 S          -0.3880   -1.0040   17.4150 S.o2      1 SUB1        0.068
      2 O1         -1.2950   -1.8100   16.4770 O.2       1 SUB1        0.127
      3 O2          0.1440    0.2270   16.6880 O.2       1 SUB1        0.151
      4 C1          0.7300   -3.3680   18.4000 C.ar      1 SUB1        0.167
      5 C2          0.9350   -2.0860   17.9600 C.ar      1 SUB1        0.101
      6 C3          2.2020   -1.5720   17.9780 C.ar      1 SUB1        0.236
      7 C4          3.2430   -2.3140   18.4880 C.ar      1 SUB1        0.262
      8 C5          4.0860   -4.3230   19.4180 C.ar      1 SUB1        0.227
      9 C6          3.8810   -5.6260   19.8320 C.ar      1 SUB1        0.169
     10 C7          2.6120   -6.1740   19.7950 C.ar      1 SUB1        0.149
     11 C8          1.5360   -5.4290   19.3400 C.ar      1 SUB1        0.148
     12 C9          1.7610   -4.1440   18.8860 C.ar      1 SUB1        0.163
     13 C10         3.0180   -3.5960   18.9340 C.ar      1 SUB1        0.193
     14 N          -1.2720   -0.3380   18.6510 N.am      1 SUB1        0.048
     15 CA         -0.4890    0.4840   19.5430 C.3       1 SUB1        0.070
     16 C          -1.2770    1.6030   20.2110 C.2       1 SUB1        0.101
     17 O          -2.0670    1.3970   21.1410 O.2       1 SUB1        0.116
     18 C          -1.6890    4.0830   21.5110 C.2       1 SUB1        0.118
     19 CA         -1.6300    4.0640   19.9830 C.3       1 SUB1        0.141
     20 CB         -0.7740    5.2310   19.4660 C.3       1 SUB1        0.160
     21 CG         -1.5230    6.5470   19.4230 C.ar      1 SUB1        0.197
     22 CD1        -2.4430    6.8660   20.4060 C.ar      1 SUB1        0.226
     23 CD2        -1.2210    7.4700   18.4490 C.ar      1 SUB1        0.273
     24 CE1        -3.0870    8.0880   20.3960 C.ar      1 SUB1        0.247
     25 CE2        -1.8720    8.6870   18.4420 C.ar      1 SUB1        0.246
     26 CZ         -2.7960    9.0240   19.4230 C.ar      1 SUB1        0.257
     27 CF         -3.3860   10.2960   19.4260 C.cat     1 SUB1        0.238
     28 O          -0.6490    4.1090   22.1780 O.2       1 SUB1        0.149
     29 N          -1.0740    2.7770   19.5880 N.am      1 SUB1        0.120
     30 NG1        -4.5780   10.5030   20.0170 N.pl3     1 SUB1        0.285
     31 NG2        -2.7050   11.3120   18.8840 N.pl3     1 SUB1        0.338
     32 N1         -2.8870    4.0870   22.1170 N.am      1 SUB1        0.138
     33 C2         -4.1390    4.2640   21.3980 C.3       1 SUB1        0.159
     34 C3         -4.9980    3.0570   21.6900 C.3       1 SUB1        0.213
     35 C4         -5.3260    3.0770   23.1750 C.3       1 SUB1        0.184
     36 C5         -3.9980    3.0040   23.9230 C.3       1 SUB1        0.169
     37 C6         -3.0480    4.1280   23.5640 C.3       1 SUB1        0.147
     38 H          -2.2530   -0.4910   18.7670 H         1 SUB1        0.000
     39 HA1        -0.0710   -0.1620   20.3290 H         1 SUB1        0.000
     40 HA2         0.3310    0.9360   18.9660 H         1 SUB1        0.000
     41 H          -0.2710   -3.7830   18.3660 H         1 SUB1        0.000
     42 H           2.3870   -0.5770   17.5900 H         1 SUB1        0.000
     43 H           4.2390   -1.8880   18.5370 H         1 SUB1        0.000
     44 H           5.0730   -3.8780   19.4740 H         1 SUB1        0.000
     45 H           4.7170   -6.2200   20.1860 H         1 SUB1        0.000
     46 H           2.4580   -7.1950   20.1260 H         1 SUB1        0.000
     47 H           0.5360   -5.8470   19.3410 H         1 SUB1        0.000
     48 H          -2.6470    4.1630   19.5740 H         1 SUB1        0.000
     49 H          -0.4330    4.9890   18.4490 H         1 SUB1        0.000
     50 H           0.0970    5.3460   20.1270 H         1 SUB1        0.000
     51 H          -2.6610    6.1500   21.1910 H         1 SUB1        0.000
     52 H          -0.4770    7.2430   17.6930 H         1 SUB1        0.000
     53 H          -3.8250    8.3130   21.1570 H         1 SUB1        0.000
     54 H          -1.6570    9.3970   17.6520 H         1 SUB1        0.000
     55 H          -0.4870    2.7660   18.7790 H         1 SUB1        0.000
     56 H          -4.7580   10.1260   20.9590 H         1 SUB1        0.000
     57 H          -5.3090   11.0370   19.5280 H         1 SUB1        0.000
     58 H          -3.2090   12.0700   18.4000 H         1 SUB1        0.000
     59 H          -1.6780   11.3370   18.9500 H         1 SUB1        0.000
     60 H          -3.9450    4.3360   20.3170 H         1 SUB1        0.000
     61 H          -4.6440    5.1790   21.7410 H         1 SUB1        0.000
     62 H          -4.4500    2.1360   21.4390 H         1 SUB1        0.000
     63 H          -5.9250    3.1040   21.1000 H         1 SUB1        0.000
     64 H          -5.9540    2.2130   23.4360 H         1 SUB1        0.000
     65 H          -5.8550    4.0050   23.4330 H         1 SUB1        0.000
     66 H          -3.5140    2.0460   23.6830 H         1 SUB1        0.000
     67 H          -4.2020    3.0510   25.0040 H         1 SUB1        0.000
     68 H          -3.4700    5.0960   23.8720 H         1 SUB1        0.000
     69 H          -2.0770    3.9770   24.0580 H         1 SUB1        0.000
@<TRIPOS>BOND
     1   15   14 1  
     2   16   15 1  
     3   16   17 2  
     4    1    2 2  
     5    1    3 2  
     6    1    5 1  
     7   14    1 1  
     8    5    6 ar 
     9    6    7 ar 
    10    7   13 ar 
    11    8    9 ar 
    12   13    8 ar 
    13    9   10 ar 
    14   11   10 ar 
    15   12   11 ar 
    16   13   12 ar 
    17   19   18 1  
    18   18   28 2  
    19   18   32 am 
    20   19   20 1  
    21   29   19 1  
    22   20   21 1  
    23   21   22 ar 
    24   22   24 ar 
    25   21   23 ar 
    26   23   25 ar 
    27   24   26 ar 
    28   25   26 ar 
    29   26   27 1  
    30   27   30 ar 
    31   27   31 ar 
    32   29   16 am 
    33   32   33 1  
    34   32   37 1  
    35   33   34 1  
    36   34   35 1  
    37   35   36 1  
    38   36   37 1  
    39   12    4 ar 
    40    5    4 ar 
    41   14   38 1  
    42   15   39 1  
    43   15   40 1  
    44    4   41 1  
    45    6   42 1  
    46    7   43 1  
    47    8   44 1  
    48    9   45 1  
    49   10   46 1  
    50   11   47 1  
    51   19   48 1  
    52   20   49 1  
    53   20   50 1  
    54   22   51 1  
    55   23   52 1  
    56   24   53 1  
    57   25   54 1  
    58   29   55 1  
    59   30   56 1  
    60   30   57 1  
    61   31   58 1  
    62   31   59 1  
    63   33   60 1  
    64   33   61 1  
    65   34   62 1  
    66   34   63 1  
    67   35   64 1  
    68   35   65 1  
    69   36   66 1  
    70   36   67 1  
    71   37   68 1  
    72   37   69 1  
@<TRIPOS>SUBSTRUCTURE
     1 SUB1        1 GROUP

