### 
### Created by X-TOOL on Fri Dec  5 23:42:09 2003
### 

@<TRIPOS>MOLECULE
1ppc-ligand.1ppc.009
   69    72     1     0     0
SMALL
USER_CHARGES


@<TRIPOS>ATOM
      1 S          -5.6510    4.9640   20.8040 S.o2      1 SUB1        0.090
      2 O1         -6.1950    4.5610   19.4280 O.2       1 SUB1        0.176
      3 O2         -6.7410    5.6740   21.6030 O.2       1 SUB1        0.121
      4 C1         -4.2850    7.3800   20.4860 C.ar      1 SUB1        0.234
      5 C2         -4.2190    6.0120   20.5410 C.ar      1 SUB1        0.154
      6 C3         -3.0160    5.3950   20.3360 C.ar      1 SUB1        0.213
      7 C4         -1.9020    6.1390   20.0210 C.ar      1 SUB1        0.254
      8 C5         -0.8470    8.2300   19.6640 C.ar      1 SUB1        0.276
      9 C6         -0.9100    9.6110   19.6410 C.ar      1 SUB1        0.302
     10 C7         -2.1110   10.2550   19.8730 C.ar      1 SUB1        0.300
     11 C8         -3.2610    9.5270   20.1360 C.ar      1 SUB1        0.276
     12 C9         -3.1760    8.1510   20.2040 C.ar      1 SUB1        0.239
     13 C10        -1.9860    7.5110   19.9610 C.ar      1 SUB1        0.242
     14 N          -5.3470    3.6200   21.7280 N.am      1 SUB1        0.049
     15 CA         -4.8860    3.9270   23.0600 C.3       1 SUB1        0.058
     16 C          -6.0020    4.0860   24.0850 C.2       1 SUB1        0.087
     17 O          -7.0370    3.4090   24.0520 O.2       1 SUB1        0.111
     18 C          -6.4760    4.4120   27.1080 C.2       1 SUB1        0.074
     19 CA         -6.5750    5.5130   26.0520 C.3       1 SUB1        0.102
     20 CB         -6.1100    6.8570   26.6350 C.3       1 SUB1        0.096
     21 CG         -4.8260    6.7490   27.4330 C.ar      1 SUB1        0.140
     22 CD1        -3.6100    6.5980   26.7920 C.ar      1 SUB1        0.237
     23 CD2        -4.8620    6.8910   28.8000 C.ar      1 SUB1        0.221
     24 CE1        -2.4340    6.5520   27.5160 C.ar      1 SUB1        0.251
     25 CE2        -3.6840    6.8390   29.5190 C.ar      1 SUB1        0.236
     26 CZ         -2.4540    6.6910   28.8900 C.ar      1 SUB1        0.242
     27 CF         -1.2720    6.7140   29.6440 C.cat     1 SUB1        0.185
     28 O          -5.3900    3.8810   27.3600 O.2       1 SUB1        0.105
     29 N          -5.7480    5.1060   24.9240 N.am      1 SUB1        0.098
     30 NG1        -0.4310    7.7640   29.5780 N.pl3     1 SUB1        0.242
     31 NG2        -1.0330    5.6970   30.4800 N.pl3     1 SUB1        0.181
     32 N1         -7.5860    4.0420   27.7680 N.am      1 SUB1        0.104
     33 C2         -8.8450    4.7620   27.6680 C.3       1 SUB1        0.112
     34 C3         -9.8860    3.7780   27.1880 C.3       1 SUB1        0.152
     35 C4        -10.0560    2.7250   28.2720 C.3       1 SUB1        0.143
     36 C5         -8.6990    2.0500   28.4490 C.3       1 SUB1        0.141
     37 C6         -7.5910    3.0210   28.8060 C.3       1 SUB1        0.098
     38 H          -5.4720    2.6860   21.3940 H         1 SUB1        0.000
     39 HA1        -4.2240    3.1140   23.3940 H         1 SUB1        0.000
     40 HA2        -4.3180    4.8680   23.0210 H         1 SUB1        0.000
     41 H          -5.2340    7.8710   20.6690 H         1 SUB1        0.000
     42 H          -2.9400    4.3180   20.4220 H         1 SUB1        0.000
     43 H          -0.9590    5.6430   19.8200 H         1 SUB1        0.000
     44 H           0.0850    7.7190   19.4520 H         1 SUB1        0.000
     45 H          -0.0150   10.1900   19.4400 H         1 SUB1        0.000
     46 H          -2.1540   11.3380   19.8480 H         1 SUB1        0.000
     47 H          -4.2090   10.0300   20.2870 H         1 SUB1        0.000
     48 H          -7.6200    5.6140   25.7210 H         1 SUB1        0.000
     49 H          -6.9000    7.2440   27.2940 H         1 SUB1        0.000
     50 H          -5.9470    7.5610   25.8050 H         1 SUB1        0.000
     51 H          -3.5780    6.5150   25.7110 H         1 SUB1        0.000
     52 H          -5.8070    7.0430   29.3100 H         1 SUB1        0.000
     53 H          -1.4910    6.4070   27.0030 H         1 SUB1        0.000
     54 H          -3.7200    6.9160   30.5990 H         1 SUB1        0.000
     55 H          -4.9150    5.6330   24.7590 H         1 SUB1        0.000
     56 H          -0.5290    8.4550   28.8210 H         1 SUB1        0.000
     57 H           0.3090    7.8750   30.2850 H         1 SUB1        0.000
     58 H          -0.1000    5.2600   30.5060 H         1 SUB1        0.000
     59 H          -1.7810    5.3500   31.0960 H         1 SUB1        0.000
     60 H          -8.7500    5.5900   26.9500 H         1 SUB1        0.000
     61 H          -9.1300    5.1610   28.6530 H         1 SUB1        0.000
     62 H          -9.5520    3.3050   26.2530 H         1 SUB1        0.000
     63 H         -10.8410    4.2960   27.0160 H         1 SUB1        0.000
     64 H         -10.8090    1.9840   27.9660 H         1 SUB1        0.000
     65 H         -10.3690    3.1980   29.2130 H         1 SUB1        0.000
     66 H          -8.4330    1.5470   27.5090 H         1 SUB1        0.000
     67 H          -8.7810    1.3040   29.2540 H         1 SUB1        0.000
     68 H          -7.7880    3.4770   29.7870 H         1 SUB1        0.000
     69 H          -6.6230    2.4990   28.8310 H         1 SUB1        0.000
@<TRIPOS>BOND
     1   15   14 1  
     2   16   15 1  
     3   16   17 2  
     4    1    2 2  
     5    1    3 2  
     6    1    5 1  
     7   14    1 1  
     8    5    6 ar 
     9    6    7 ar 
    10    7   13 ar 
    11    8    9 ar 
    12   13    8 ar 
    13    9   10 ar 
    14   11   10 ar 
    15   12   11 ar 
    16   13   12 ar 
    17   19   18 1  
    18   18   28 2  
    19   18   32 am 
    20   19   20 1  
    21   29   19 1  
    22   20   21 1  
    23   21   22 ar 
    24   22   24 ar 
    25   21   23 ar 
    26   23   25 ar 
    27   24   26 ar 
    28   25   26 ar 
    29   26   27 1  
    30   27   30 ar 
    31   27   31 ar 
    32   29   16 am 
    33   32   33 1  
    34   32   37 1  
    35   33   34 1  
    36   34   35 1  
    37   35   36 1  
    38   36   37 1  
    39   12    4 ar 
    40    5    4 ar 
    41   14   38 1  
    42   15   39 1  
    43   15   40 1  
    44    4   41 1  
    45    6   42 1  
    46    7   43 1  
    47    8   44 1  
    48    9   45 1  
    49   10   46 1  
    50   11   47 1  
    51   19   48 1  
    52   20   49 1  
    53   20   50 1  
    54   22   51 1  
    55   23   52 1  
    56   24   53 1  
    57   25   54 1  
    58   29   55 1  
    59   30   56 1  
    60   30   57 1  
    61   31   58 1  
    62   31   59 1  
    63   33   60 1  
    64   33   61 1  
    65   34   62 1  
    66   34   63 1  
    67   35   64 1  
    68   35   65 1  
    69   36   66 1  
    70   36   67 1  
    71   37   68 1  
    72   37   69 1  
@<TRIPOS>SUBSTRUCTURE
     1 SUB1        1 GROUP

