### Name: 1a46_ligand
### Creating user name: arthur
### Creation time: Tue Nov 27 11:30:16 2001


@<TRIPOS>MOLECULE
1a46_ligand
   82    85     1     0     0
SMALL
USER_CHARGES


@<TRIPOS>ATOM
      1 C6         18.7640  -15.9840   25.5820 C.ar      1 SUB1        0.000
      2 C1         19.7890  -16.9510   25.7560 C.ar      1 SUB1        0.000
      3 C2         21.0990  -16.5480   26.0980 C.ar      1 SUB1        0.000
      4 C3         21.4290  -15.1780   26.2150 C.ar      1 SUB1        0.000
      5 C4         20.3910  -14.2520   26.0760 C.ar      1 SUB1        0.000
      6 C5         19.0510  -14.6340   25.7600 C.ar      1 SUB1        0.000
      7 N          15.8090  -16.7300   23.6610 N.4       1 SUB1        1.000
      8 N2         17.7750  -14.5090   22.0480 N.am      1 SUB1        0.000
      9 N3         18.8520  -15.2420   21.4440 N.4       1 SUB1        1.000
     10 O1         15.9850  -14.2900   23.3800 O.2       1 SUB1        0.000
     11 CB         17.4150  -16.4170   25.1230 C.3       1 SUB1        0.000
     12 C1         17.0320  -14.9230   23.0460 C.2       1 SUB1        0.000
     13 C2         17.2230  -16.3290   23.5970 C.3       1 SUB1        0.000
     14 C3         18.1340  -17.2300   22.7620 C.3       1 SUB1        0.000
     15 C4         19.3270  -16.4440   22.1560 C.3       1 SUB1        0.000
     16 C6         19.8510  -14.2200   21.1170 C.3       1 SUB1        0.000
     17 C7         18.8870  -13.0710   20.5870 C.3       1 SUB1        0.000
     18 C8         17.8330  -13.0420   21.6620 C.3       1 SUB1        0.000
     19 C9         16.6380  -13.0610   20.7550 C.2       1 SUB1        0.000
     20 O2         16.4620  -13.9620   19.8370 O.2       1 SUB1        0.000
     21 N          15.6470  -12.0890   20.7690 N.am      1 SUB1        0.000
     22 CA         14.4940  -11.8920   19.9090 C.3       1 SUB1        0.000
     23 C          14.4960  -10.9450   18.7130 C.2       1 SUB1        0.000
     24 O          13.3800  -10.6840   18.0770 O.2       1 SUB1        0.000
     25 CB         13.1950  -11.6150   20.6280 C.3       1 SUB1        0.000
     26 CG         12.8670  -12.5040   21.7570 C.3       1 SUB1        0.000
     27 CD         11.5610  -12.2200   22.4370 C.3       1 SUB1        0.000
     28 CE         11.1700  -13.3510   23.3530 C.3       1 SUB1        0.000
     29 NZ         10.0380  -13.1110   24.2350 N.4       1 SUB1        1.000
     30 N          14.8040  -11.9210   16.4570 N.am      1 SUB1        0.000
     31 C          15.3450  -11.4350   17.5510 C.2       1 SUB1        0.000
     32 O          16.4740  -11.0890   17.7310 O.2       1 SUB1        0.000
     33 C1         15.6510  -12.3330   15.3350 C.3       1 SUB1        0.000
     34 C2         16.0390  -13.7960   15.2500 C.3       1 SUB1        0.000
     35 C3         14.9560  -14.6030   14.5390 C.3       1 SUB1        0.000
     36 C4         14.5990  -13.9990   13.1800 C.3       1 SUB1        0.000
     37 C5         14.1680  -12.5610   13.3540 C.3       1 SUB1        0.000
     38 C6         15.2770  -11.7400   13.9980 C.3       1 SUB1        0.000
     39 H          15.7438  -11.4084   21.4953 H         1 SUB1        0.000
     40 HA         14.3732  -12.8874   19.4568 H         1 SUB1        0.000
     41 HB2        12.3816  -11.6953   19.8919 H         1 SUB1        0.000
     42 HB1        13.2394  -10.5861   21.0145 H         1 SUB1        0.000
     43 HG2        13.6673  -12.4118   22.5060 H         1 SUB1        0.000
     44 HG1        12.8360  -13.5365   21.3789 H         1 SUB1        0.000
     45 HD2        10.7795  -12.0889   21.6740 H         1 SUB1        0.000
     46 HD1        11.6562  -11.2963   23.0267 H         1 SUB1        0.000
     47 HE2        12.0403  -13.5868   23.9831 H         1 SUB1        0.000
     48 HE1        10.9258  -14.2204   22.7250 H         1 SUB1        0.000
     49 HZ3        10.2444  -12.3336   24.8426 H         1 SUB1        0.000
     50 HZ2         9.8640  -13.9342   24.7900 H         1 SUB1        0.000
     51 HZ1         9.2214  -12.8989   23.6835 H         1 SUB1        0.000
     52 H1         19.5652  -18.0036   25.6258 H         1 SUB1        0.000
     53 H2         21.8611  -17.2987   26.2730 H         1 SUB1        0.000
     54 H3         22.4472  -14.8583   26.4051 H         1 SUB1        0.000
     55 H4         20.6121  -13.1998   26.2138 H         1 SUB1        0.000
     56 H5         18.2725  -13.8862   25.6608 H         1 SUB1        0.000
     57 H6         15.7423  -17.6706   24.0173 H         1 SUB1        0.000
     58 H7         15.4066  -16.6912   22.7376 H         1 SUB1        0.000
     59 H8         15.3093  -16.1031   24.2720 H         1 SUB1        0.000
     60 H9         17.2613  -17.4612   25.4329 H         1 SUB1        0.000
     61 H10        16.6619  -15.7767   25.6054 H         1 SUB1        0.000
     62 H11        17.5456  -17.6701   21.9434 H         1 SUB1        0.000
     63 H12        18.5262  -18.0323   23.4042 H         1 SUB1        0.000
     64 H13        20.0069  -16.1393   22.9652 H         1 SUB1        0.000
     65 H14        19.8654  -17.0930   21.4496 H         1 SUB1        0.000
     66 H15        20.5484  -14.5622   20.3382 H         1 SUB1        0.000
     67 H16        20.4188  -13.9025   22.0040 H         1 SUB1        0.000
     68 H17        18.4555  -13.3284   19.6084 H         1 SUB1        0.000
     69 H18        19.4127  -12.1075   20.5140 H         1 SUB1        0.000
     70 H19        17.9056  -12.2840   22.4558 H         1 SUB1        0.000
     71 H20        13.8102  -12.0101   16.3899 H         1 SUB1        0.000
     72 H21        16.6070  -11.8419   15.5691 H         1 SUB1        0.000
     73 H22        16.1754  -14.1927   16.2669 H         1 SUB1        0.000
     74 H23        16.9821  -13.8872   14.6913 H         1 SUB1        0.000
     75 H24        14.0542  -14.6213   15.1686 H         1 SUB1        0.000
     76 H25        15.3187  -15.6304   14.3879 H         1 SUB1        0.000
     77 H26        13.7767  -14.5743   12.7297 H         1 SUB1        0.000
     78 H27        15.4785  -14.0389   12.5206 H         1 SUB1        0.000
     79 H28        13.2749  -12.5269   13.9952 H         1 SUB1        0.000
     80 H29        13.9286  -12.1342   12.3689 H         1 SUB1        0.000
     81 H30        16.1587  -11.7402   13.3403 H         1 SUB1        0.000
     82 H31        14.9278  -10.7070   14.1429 H         1 SUB1        0.000
@<TRIPOS>BOND
     1    1    6 ar 
     2    1    2 ar 
     3    2    3 ar 
     4    3    4 ar 
     5    4    5 ar 
     6    5    6 ar 
     7    7   13 1  
     8   13   11 1  
     9   13   14 1  
    10   13   12 1  
    11   12   10 2  
    12   12    8 am 
    13    8   18 1  
    14    8    9 1  
    15    9   16 1  
    16    9   15 1  
    17   15   14 1  
    18   16   17 1  
    19   17   18 1  
    20   18   19 1  
    21   19   20 2  
    22   22   23 1  
    23   22   25 1  
    24   22   21 1  
    25   25   26 1  
    26   26   27 1  
    27   27   28 1  
    28   28   29 1  
    29   23   24 2  
    30   30   33 1  
    31   30   31 am 
    32   31   32 2  
    33   33   38 1  
    34   33   34 1  
    35   34   35 1  
    36   35   36 1  
    37   36   37 1  
    38   37   38 1  
    39   21   19 am 
    40   31   23 1  
    41   11    1 1  
    42   21   39 1  
    43   22   40 1  
    44   25   41 1  
    45   25   42 1  
    46   26   43 1  
    47   26   44 1  
    48   27   45 1  
    49   27   46 1  
    50   28   47 1  
    51   28   48 1  
    52   29   49 1  
    53   29   50 1  
    54   29   51 1  
    55    2   52 1  
    56    3   53 1  
    57    4   54 1  
    58    5   55 1  
    59    6   56 1  
    60    7   57 1  
    61    7   58 1  
    62    7   59 1  
    63   11   60 1  
    64   11   61 1  
    65   14   62 1  
    66   14   63 1  
    67   15   64 1  
    68   15   65 1  
    69   16   66 1  
    70   16   67 1  
    71   17   68 1  
    72   17   69 1  
    73   18   70 1  
    74   30   71 1  
    75   33   72 1  
    76   34   73 1  
    77   34   74 1  
    78   35   75 1  
    79   35   76 1  
    80   36   77 1  
    81   36   78 1  
    82   37   79 1  
    83   37   80 1  
    84   38   81 1  
    85   38   82 1  
@<TRIPOS>SUBSTRUCTURE
     1 SUB1        1 GROUP

