### Name: 1abe_ligand
### Creating user name: arthur
### Creation time: Tue Nov 27 11:30:17 2001


@<TRIPOS>MOLECULE
1abe_ligand
   20    20     1     0     0
SMALL
USER_CHARGES


@<TRIPOS>ATOM
      1 C1         14.3120   56.5670   55.2040 C.3       1 SUB1        0.000
      2 C2         12.8970   57.0410   54.9240 C.3       1 SUB1        0.000
      3 C3         12.3320   56.2800   53.7250 C.3       1 SUB1        0.000
      4 C4         13.2800   56.3730   52.5190 C.3       1 SUB1        0.000
      5 C5         14.6610   55.8770   52.9310 C.3       1 SUB1        0.000
      6 O1         14.7660   57.3640   56.2550 O.3       1 SUB1        0.000
      7 O2         12.0600   56.8900   56.0760 O.3       1 SUB1        0.000
      8 O3         11.0560   56.7750   53.3360 O.3       1 SUB1        0.000
      9 O4         13.3190   57.7020   51.9740 O.3       1 SUB1        0.000
     10 O5         15.1210   56.7460   54.0290 O.3       1 SUB1        0.000
     11 ****       14.3170   55.5067   55.4967 H         1 SUB1        0.000
     12 ****       12.9343   58.1104   54.6691 H         1 SUB1        0.000
     13 ****       12.2255   55.2231   54.0105 H         1 SUB1        0.000
     14 ****       12.8994   55.7046   51.7327 H         1 SUB1        0.000
     15 ****       15.3555   55.9433   52.0805 H         1 SUB1        0.000
     16 ****       14.6007   54.8339   53.2748 H         1 SUB1        0.000
     17 ****       15.6547   57.1150   56.4802 H         1 SUB1        0.000
     18 ****       12.4339   57.3719   56.8044 H         1 SUB1        0.000
     19 ****       10.4584   56.7236   54.0727 H         1 SUB1        0.000
     20 ****       12.4407   57.9706   51.7314 H         1 SUB1        0.000
@<TRIPOS>BOND
     1    1    2 1  
     2    1    6 1  
     3    1   10 1  
     4    2    3 1  
     5    2    7 1  
     6    3    4 1  
     7    3    8 1  
     8    4    5 1  
     9    4    9 1  
    10    5   10 1  
    11    1   11 1  
    12    2   12 1  
    13    3   13 1  
    14    4   14 1  
    15    5   15 1  
    16    5   16 1  
    17    6   17 1  
    18    7   18 1  
    19    8   19 1  
    20    9   20 1  
@<TRIPOS>SUBSTRUCTURE
     1 SUB1        1 GROUP

