### Name: 1af2_ligand
### Creating user name: arthur
### Creation time: Tue Nov 27 11:30:17 2001


@<TRIPOS>MOLECULE
1af2_ligand
   29    30     1     0     0
SMALL
USER_CHARGES


@<TRIPOS>ATOM
      1 H1         32.3475   52.0428   11.1816 H         1 SUB1        0.000
      2 H2         33.7611   51.4462   12.9555 H         1 SUB1        0.000
      3 H3         34.0486   53.1237   12.3811 H         1 SUB1        0.000
      4 H4         36.0764   51.8388   12.6236 H         1 SUB1        0.000
      5 H5         35.5912   53.5743   10.6160 H         1 SUB1        0.000
      6 H6         37.8195   53.2860   10.1370 H         1 SUB1        0.000
      7 H7         34.9171   52.1443    8.8994 H         1 SUB1        0.000
      8 H8         36.7702   51.5317    7.6501 H         1 SUB1        0.000
      9 H9         36.9229   50.2905    9.8198 H         1 SUB1        0.000
     10 H10        35.9197   46.9783    7.0427 H         1 SUB1        0.000
     11 H11        32.1747   47.9707    8.5913 H         1 SUB1        0.000
     12 H12        33.2847   49.3272   10.2706 H         1 SUB1        0.000
     13 O5'        33.2440   51.8150   10.9650 O.3       1 SUB1        0.000
     14 C5'        34.0900   52.0600   12.1040 C.3       1 SUB1        0.000
     15 C4'        35.4680   51.6920   11.7190 C.3       1 SUB1        0.000
     16 O4'        35.6230   50.3370   11.3450 O.3       1 SUB1        0.000
     17 C3'        36.0780   52.5880   10.6320 C.3       1 SUB1        0.000
     18 O3'        37.4630   52.7290   10.8190 O.3       1 SUB1        0.000
     19 C2'        35.8650   51.8640    9.3820 C.3       1 SUB1        0.000
     20 O2'        36.9600   52.0210    8.4420 O.3       1 SUB1        0.000
     21 C1'        35.8430   50.4710    9.9260 C.3       1 SUB1        0.000
     22 N1         35.2970   49.0220    9.4500 N.am      1 SUB1        0.000
     23 C2         36.0660   48.3560    8.5220 C.2       1 SUB1        0.000
     24 O2         37.2830   48.4750    8.3920 O.2       1 SUB1        0.000
     25 N3         35.3750   47.5660    7.6410 N.am      1 SUB1        0.000
     26 C4         34.0150   47.4990    7.4960 C.2       1 SUB1        0.000
     27 O4         33.5860   46.9810    6.5050 O.2       1 SUB1        0.000
     28 C5         33.2540   48.1100    8.5500 C.2       1 SUB1        0.000
     29 C6         33.8690   48.8520    9.4840 C.2       1 SUB1        0.000
@<TRIPOS>BOND
     1   13    1 1  
     2   14    2 1  
     3   14    3 1  
     4   15    4 1  
     5   17    5 1  
     6   18    6 1  
     7   19    7 1  
     8   20    8 1  
     9   21    9 1  
    10   25   10 1  
    11   28   11 1  
    12   29   12 1  
    13   14   13 1  
    14   15   14 1  
    15   16   15 1  
    16   17   15 1  
    17   21   16 1  
    18   17   18 1  
    19   19   17 1  
    20   19   20 1  
    21   21   19 1  
    22   22   21 1  
    23   22   23 am 
    24   29   22 am 
    25   23   24 2  
    26   23   25 am 
    27   25   26 am 
    28   26   27 2  
    29   26   28 1  
    30   28   29 2  
@<TRIPOS>SUBSTRUCTURE
     1 SUB1        1 GROUP

