### Name: 1anf_ligand
### Creating user name: arthur
### Creation time: Tue Nov 27 11:30:17 2001


@<TRIPOS>MOLECULE
1anf_ligand
   45    46     1     0     0
SMALL
USER_CHARGES


@<TRIPOS>ATOM
      1 H1         11.7542   14.5671   41.2940 H         1 SUB1        0.000
      2 H2         11.4266   16.0570   43.2766 H         1 SUB1        0.000
      3 H3          9.4611   17.5780   41.5462 H         1 SUB1        0.000
      4 H4         12.2445   18.3213   42.6433 H         1 SUB1        0.000
      5 H5         11.4172   17.9379   39.7258 H         1 SUB1        0.000
      6 H6         14.1623   18.1107   41.0399 H         1 SUB1        0.000
      7 H7         13.3029   19.5670   40.4340 H         1 SUB1        0.000
      8 H8          9.9029   14.3402   42.9351 H         1 SUB1        0.000
      9 H9          9.0024   17.6108   43.8285 H         1 SUB1        0.000
     10 H10        10.7500   20.1074   42.4146 H         1 SUB1        0.000
     11 H11        14.7416   18.6247   38.7911 H         1 SUB1        0.000
     12 H12         8.6750   12.2938   36.7481 H         1 SUB1        0.000
     13 H13         9.4658   11.8814   38.9194 H         1 SUB1        0.000
     14 H14         8.0756   14.4205   39.9012 H         1 SUB1        0.000
     15 H15        11.0392   13.8829   39.3355 H         1 SUB1        0.000
     16 H16         9.0780   15.9367   38.0952 H         1 SUB1        0.000
     17 H17        11.8438   15.0672   37.0586 H         1 SUB1        0.000
     18 H18        11.5746   16.5085   38.0964 H         1 SUB1        0.000
     19 H19         7.2777   14.0647   36.3671 H         1 SUB1        0.000
     20 H20         7.2291   11.3148   38.6541 H         1 SUB1        0.000
     21 H21         8.5010   12.6557   41.3999 H         1 SUB1        0.000
     22 H22        11.2907   16.9940   35.7938 H         1 SUB1        0.000
     23 C1         11.3820   15.5960   41.1810 C.3       1 SUB1        0.000
     24 C2         10.6860   16.0920   42.4640 C.3       1 SUB1        0.000
     25 C3         10.2520   17.5280   42.3090 C.3       1 SUB1        0.000
     26 C4         11.4890   18.3650   41.8450 C.3       1 SUB1        0.000
     27 C5         12.1020   17.8100   40.5770 C.3       1 SUB1        0.000
     28 C6         13.4220   18.4800   40.3150 C.3       1 SUB1        0.000
     29 O2          9.5900   15.2330   42.8480 O.3       1 SUB1        0.000
     30 O3          9.7560   18.1050   43.5280 O.3       1 SUB1        0.000
     31 O4         11.1360   19.7490   41.6240 O.3       1 SUB1        0.000
     32 O5         12.4060   16.4200   40.8060 O.3       1 SUB1        0.000
     33 O6         13.9080   18.1910   38.9310 O.3       1 SUB1        0.000
     34 C1          8.5370   13.1410   37.4360 C.3       1 SUB1        0.000
     35 C2          8.6570   12.6250   38.8660 C.3       1 SUB1        0.000
     36 C3          8.9460   13.7530   39.8190 C.3       1 SUB1        0.000
     37 C4         10.1450   14.5230   39.3600 C.3       1 SUB1        0.000
     38 C5          9.8470   15.1610   37.9650 C.3       1 SUB1        0.000
     39 C6         11.1090   15.8230   37.3730 C.3       1 SUB1        0.000
     40 O1          7.3430   13.7470   37.2600 O.3       1 SUB1        0.000
     41 O2          7.4300   12.0310   39.2450 O.3       1 SUB1        0.000
     42 O3          9.2530   13.1490   41.0940 O.3       1 SUB1        0.000
     43 O4         10.3170   15.6750   40.2450 O.3       1 SUB1        0.000
     44 O5          9.3520   14.1830   37.0850 O.3       1 SUB1        0.000
     45 O6         10.5830   16.5420   36.2380 O.3       1 SUB1        0.000
@<TRIPOS>BOND
     1   23    1 1  
     2   24    2 1  
     3   25    3 1  
     4   26    4 1  
     5   27    5 1  
     6   28    6 1  
     7   28    7 1  
     8   29    8 1  
     9   30    9 1  
    10   31   10 1  
    11   33   11 1  
    12   34   12 1  
    13   35   13 1  
    14   36   14 1  
    15   37   15 1  
    16   38   16 1  
    17   39   17 1  
    18   39   18 1  
    19   40   19 1  
    20   41   20 1  
    21   42   21 1  
    22   45   22 1  
    23   23   24 1  
    24   23   32 1  
    25   24   25 1  
    26   24   29 1  
    27   25   26 1  
    28   25   30 1  
    29   26   27 1  
    30   26   31 1  
    31   27   28 1  
    32   27   32 1  
    33   28   33 1  
    34   34   35 1  
    35   34   40 1  
    36   34   44 1  
    37   35   36 1  
    38   35   41 1  
    39   36   37 1  
    40   36   42 1  
    41   37   38 1  
    42   37   43 1  
    43   38   39 1  
    44   38   44 1  
    45   39   45 1  
    46   43   23 1  
@<TRIPOS>SUBSTRUCTURE
     1 SUB1        1 GROUP

