### Name: 1apt_ligand
### Creating user name: arthur
### Creation time: Tue Nov 27 11:30:17 2001


@<TRIPOS>MOLECULE
1apt_ligand
   84    83     1     0     0
SMALL
USER_CHARGES


@<TRIPOS>ATOM
      1 H          17.9385    6.1024   17.6193 H         1 SUB1        0.000
      2 HA         19.2953    5.1275   20.1363 H         1 SUB1        0.000
      3 HB         21.3524    5.9072   18.9385 H         1 SUB1        0.000
      4 HG13       20.5831    3.5466   18.6724 H         1 SUB1        0.000
      5 HG12       21.3291    4.1547   17.1558 H         1 SUB1        0.000
      6 HG11       19.5419    4.0404   17.2945 H         1 SUB1        0.000
      7 HG23       19.3896    6.3951   16.6106 H         1 SUB1        0.000
      8 HG22       21.1811    6.4738   16.5069 H         1 SUB1        0.000
      9 HG21       20.2856    7.6714   17.5021 H         1 SUB1        0.000
     10 H          20.6331    6.6241   21.2239 H         1 SUB1        0.000
     11 HA         19.6533    9.4513   21.1598 H         1 SUB1        0.000
     12 HB         19.9905    7.8635   23.7334 H         1 SUB1        0.000
     13 HG13       20.5650   10.2732   23.9866 H         1 SUB1        0.000
     14 HG12       19.0078    9.9074   24.8038 H         1 SUB1        0.000
     15 HG11       19.0128   10.7373   23.2107 H         1 SUB1        0.000
     16 HG23       17.4799    8.9018   22.3400 H         1 SUB1        0.000
     17 HG22       17.5453    8.1311   23.9612 H         1 SUB1        0.000
     18 HG21       17.9728    7.1816   22.4976 H         1 SUB1        0.000
     19 H1         15.6707    5.5169   17.4713 H         1 SUB1        0.000
     20 H2         16.3577    3.9256   16.9995 H         1 SUB1        0.000
     21 H3         15.1242    2.8284   18.8065 H         1 SUB1        0.000
     22 H4         13.5185    4.1762   20.1780 H         1 SUB1        0.000
     23 H5         14.0917    5.6693   19.3602 H         1 SUB1        0.000
     24 H6         15.2118    4.7308   20.4049 H         1 SUB1        0.000
     25 H7         13.9003    3.1056   16.6825 H         1 SUB1        0.000
     26 H8         13.2894    4.6984   17.2449 H         1 SUB1        0.000
     27 H9         12.7993    3.1961   18.0989 H         1 SUB1        0.000
     28 H10        24.8122   11.9605   21.1715 H         1 SUB1        0.000
     29 H11        24.0358    9.6794   21.7759 H         1 SUB1        0.000
     30 H12        25.2970    9.9921   19.7783 H         1 SUB1        0.000
     31 H13        23.8455   10.5545   18.8818 H         1 SUB1        0.000
     32 H14        24.6574    8.4692   18.1257 H         1 SUB1        0.000
     33 H15        22.9930    8.3758   18.7948 H         1 SUB1        0.000
     34 H16        23.7825    7.1654   20.7372 H         1 SUB1        0.000
     35 H17        25.4932    7.3902   20.2374 H         1 SUB1        0.000
     36 H18        25.2228    5.9609   18.2643 H         1 SUB1        0.000
     37 H19        23.4336    6.1183   18.2881 H         1 SUB1        0.000
     38 H20        22.4021   11.2485   22.6822 H         1 SUB1        0.000
     39 H21        22.4958   12.9963   22.2783 H         1 SUB1        0.000
     40 H22        21.5154   12.5662   24.7002 H         1 SUB1        0.000
     41 H23        22.6357   12.7316   26.0946 H         1 SUB1        0.000
     42 H24        20.8228   14.4151   26.1944 H         1 SUB1        0.000
     43 H25        21.3039   15.0323   24.5776 H         1 SUB1        0.000
     44 H26        22.4242   15.1977   25.9720 H         1 SUB1        0.000
     45 H27        23.6337   12.2586   19.3514 H         1 SUB1        0.000
     46 H28        21.4807   10.3051   20.2764 H         1 SUB1        0.000
     47 H29        24.1686    4.0571   19.3939 H         1 SUB1        0.000
     48 H30        23.4449    5.0592   20.4809 H         1 SUB1        0.000
     49 H31        25.0845    4.9149   20.4591 H         1 SUB1        0.000
     50 CA         15.9970    4.5340   17.8420 C.3       1 SUB1        0.000
     51 CB         14.8110    3.8320   18.4830 C.3       1 SUB1        0.000
     52 CG1        14.3780    4.6600   19.6910 C.3       1 SUB1        0.000
     53 CG2        13.6190    3.6990   17.5650 C.3       1 SUB1        0.000
     54 C          17.1540    4.7370   18.8420 C.2       1 SUB1        0.000
     55 O          17.2100    4.0790   19.9240 O.2       1 SUB1        0.000
     56 N          18.0490    5.6090   18.4820 N.am      1 SUB1        0.000
     57 CA         19.2360    5.8820   19.3380 C.3       1 SUB1        0.000
     58 C          19.1450    7.2460   20.0120 C.2       1 SUB1        0.000
     59 O          18.2980    8.1010   19.6030 O.2       1 SUB1        0.000
     60 CB         20.4240    5.6900   18.3900 C.3       1 SUB1        0.000
     61 CG1        20.4730    4.2560   17.8390 C.3       1 SUB1        0.000
     62 CG2        20.3120    6.6250   17.1640 C.3       1 SUB1        0.000
     63 N          20.0330    7.3890   20.9900 N.am      1 SUB1        0.000
     64 CA         20.1500    8.6590   21.7390 C.3       1 SUB1        0.000
     65 C          21.6610    8.9920   21.8230 C.2       1 SUB1        0.000
     66 O          22.3270    8.3940   22.7050 O.2       1 SUB1        0.000
     67 CB         19.4630    8.6030   23.1130 C.3       1 SUB1        0.000
     68 CG1        19.5160    9.9810   23.8310 C.3       1 SUB1        0.000
     69 CG2        18.0160    8.1750   22.9680 C.3       1 SUB1        0.000
     70 C          23.7360   11.7390   21.1200 C.3       1 SUB1        0.000
     71 CA         23.5500   10.2150   20.9470 C.3       1 SUB1        0.000
     72 CB         24.2170    9.8420   19.6330 C.3       1 SUB1        0.000
     73 CG         24.0570    8.4950   19.0470 C.3       1 SUB1        0.000
     74 CD         24.4590    7.2840   19.8780 C.3       1 SUB1        0.000
     75 CE         24.3380    6.0550   18.9110 C.3       1 SUB1        0.000
     76 C2         23.0800   12.0760   22.4260 C.3       1 SUB1        0.000
     77 C1         23.9940   12.2990   23.6030 C.2       1 SUB1        0.000
     78 C9         22.2790   13.2050   25.1680 C.3       1 SUB1        0.000
     79 C10        21.6650   14.5560   25.5010 C.3       1 SUB1        0.000
     80 O          23.2200   12.4700   20.1800 O.3       1 SUB1        0.000
     81 O1         24.4520   11.2400   24.1330 O.2       1 SUB1        0.000
     82 O2         23.4360   13.3690   24.2190 O.3       1 SUB1        0.000
     83 N          22.1030    9.8790   20.9330 N.am      1 SUB1        0.000
     84 NZ         24.2520    4.9300   19.8910 N.4       1 SUB1        1.000
@<TRIPOS>BOND
     1   56    1 1  
     2   57    2 1  
     3   60    3 1  
     4   61    4 1  
     5   61    5 1  
     6   61    6 1  
     7   62    7 1  
     8   62    8 1  
     9   62    9 1  
    10   63   10 1  
    11   64   11 1  
    12   67   12 1  
    13   68   13 1  
    14   68   14 1  
    15   68   15 1  
    16   69   16 1  
    17   69   17 1  
    18   69   18 1  
    19   50   19 1  
    20   50   20 1  
    21   51   21 1  
    22   52   22 1  
    23   52   23 1  
    24   52   24 1  
    25   53   25 1  
    26   53   26 1  
    27   53   27 1  
    28   70   28 1  
    29   71   29 1  
    30   72   30 1  
    31   72   31 1  
    32   73   32 1  
    33   73   33 1  
    34   74   34 1  
    35   74   35 1  
    36   75   36 1  
    37   75   37 1  
    38   76   38 1  
    39   76   39 1  
    40   78   40 1  
    41   78   41 1  
    42   79   42 1  
    43   79   43 1  
    44   79   44 1  
    45   80   45 1  
    46   83   46 1  
    47   84   47 1  
    48   84   48 1  
    49   84   49 1  
    50   57   56 1  
    51   57   60 1  
    52   57   58 1  
    53   58   59 2  
    54   60   62 1  
    55   60   61 1  
    56   64   63 1  
    57   64   67 1  
    58   64   65 1  
    59   65   66 2  
    60   67   69 1  
    61   67   68 1  
    62   63   58 am 
    63   50   51 1  
    64   50   54 1  
    65   51   52 1  
    66   51   53 1  
    67   54   55 2  
    68   56   54 am 
    69   70   71 1  
    70   70   76 1  
    71   70   80 1  
    72   71   72 1  
    73   71   83 1  
    74   72   73 1  
    75   73   74 1  
    76   74   75 1  
    77   75   84 1  
    78   76   77 1  
    79   77   81 2  
    80   77   82 1  
    81   78   79 1  
    82   82   78 1  
    83   83   65 am 
@<TRIPOS>SUBSTRUCTURE
     1 SUB1        1 GROUP

