### Name: 1b5g_ligand
### Creating user name: arthur
### Creation time: Tue Nov 27 11:30:17 2001


@<TRIPOS>MOLECULE
1b5g_ligand
   77    81     1     0     0
SMALL
USER_CHARGES


@<TRIPOS>ATOM
      1 C1         16.4090  -12.7630   20.1670 C.2       1 SUB1        0.000
      2 O1         15.9940  -13.7530   19.5710 O.2       1 SUB1        0.000
      3 C2         17.7970  -12.7800   20.8170 C.3       1 SUB1        0.000
      4 C3         18.9650  -12.7520   19.8060 C.3       1 SUB1        0.000
      5 C4         19.4410  -14.2310   19.7100 C.3       1 SUB1        0.000
      6 C5         19.3420  -14.6980   21.1760 C.3       1 SUB1        0.000
      7 C6         19.3860  -16.2100   21.4240 C.3       1 SUB1        0.000
      8 C7         18.7590  -16.6540   22.7340 C.3       1 SUB1        0.000
      9 C8         17.4970  -15.8880   23.1740 C.3       1 SUB1        0.000
     10 C9         17.2390  -14.5030   22.5070 C.2       1 SUB1        0.000
     11 O2         16.1710  -13.9540   22.7370 O.2       1 SUB1        0.000
     12 N1         18.0630  -14.0350   21.5470 N.am      1 SUB1        0.000
     13 N2         17.4410  -15.7980   24.6440 N.4       1 SUB1        1.000
     14 C10        16.2530  -16.6920   22.7090 C.3       1 SUB1        0.000
     15 C11        16.4480  -18.1420   23.1610 C.ar      1 SUB1        0.000
     16 C12        17.3280  -18.9820   22.4920 C.ar      1 SUB1        0.000
     17 C13        17.5160  -20.3040   22.9380 C.ar      1 SUB1        0.000
     18 C14        16.8030  -20.7720   24.0410 C.ar      1 SUB1        0.000
     19 C15        15.8810  -19.9380   24.6970 C.ar      1 SUB1        0.000
     20 C16        15.6990  -18.6270   24.2420 C.ar      1 SUB1        0.000
     21 N          15.6720  -11.6230   20.2770 N.am      1 SUB1        0.000
     22 CA         14.3470  -11.5840   19.6000 C.3       1 SUB1        0.000
     23 C          14.5720  -10.7420   18.3200 C.2       1 SUB1        0.000
     24 O          13.5590  -10.2060   17.7980 O.2       1 SUB1        0.000
     25 CB         13.3210  -10.7920   20.4900 C.3       1 SUB1        0.000
     26 CG         13.0360  -11.7540   21.6670 C.3       1 SUB1        0.000
     27 CD         12.0530  -11.2570   22.6120 C.3       1 SUB1        0.000
     28 NE         11.6180  -12.3610   23.4780 N.pl3     1 SUB1        0.000
     29 CZ         10.6290  -12.1130   24.3290 C.cat     1 SUB1        0.000
     30 NH1        10.4870  -10.8120   24.6690 N.pl3     1 SUB1        0.500
     31 NH2         9.8180  -13.0660   24.7960 N.pl3     1 SUB1        0.500
     32 C1         15.6140  -11.2400   17.2720 C.2       1 SUB1        0.000
     33 N1         16.8080  -10.9240   17.1060 N.2       1 SUB1        0.000
     34 C2         17.4220  -11.6190   16.0750 C.ar      1 SUB1        0.000
     35 C3         18.7580  -11.4790   15.6340 C.ar      1 SUB1        0.000
     36 C4         19.2140  -12.2400   14.5300 C.ar      1 SUB1        0.000
     37 C5         18.3480  -13.1380   13.8870 C.ar      1 SUB1        0.000
     38 C6         17.0050  -13.2580   14.3220 C.ar      1 SUB1        0.000
     39 C7         16.5980  -12.4800   15.4120 C.ar      1 SUB1        0.000
     40 S1         15.0320  -12.4580   16.0840 S.3       1 SUB1        0.000
     41 H          16.0100  -10.8377   20.7957 H         1 SUB1        0.000
     42 HA         13.9794  -12.5954   19.3722 H         1 SUB1        0.000
     43 HB2        12.4001  -10.5757   19.9286 H         1 SUB1        0.000
     44 HB1        13.7601   -9.8502   20.8508 H         1 SUB1        0.000
     45 HG2        13.9782  -11.9277   22.2075 H         1 SUB1        0.000
     46 HG1        12.6691  -12.7055   21.2548 H         1 SUB1        0.000
     47 HD2        11.1874  -10.8544   22.0656 H         1 SUB1        0.000
     48 HD1        12.5012  -10.4619   23.2259 H         1 SUB1        0.000
     49 HE         12.0617  -13.2891   23.4273 H         1 SUB1        0.000
     50 HH11       11.1213  -10.1039   24.2725 H         1 SUB1        0.000
     51 HH12        9.7446  -10.5291   25.3245 H         1 SUB1        0.000
     52 HH21        9.9461  -14.0433   24.4971 H         1 SUB1        0.000
     53 HH22        9.0645  -12.8236   25.4551 H         1 SUB1        0.000
     54 H1         17.8649  -11.9182   21.4972 H         1 SUB1        0.000
     55 H2         19.7775  -12.1060   20.1699 H         1 SUB1        0.000
     56 H3         18.6207  -12.3911   18.8256 H         1 SUB1        0.000
     57 H4         20.4749  -14.2945   19.3397 H         1 SUB1        0.000
     58 H5         18.7809  -14.8213   19.0575 H         1 SUB1        0.000
     59 H6         20.1696  -14.2635   21.7559 H         1 SUB1        0.000
     60 H7         20.4392  -16.5275   21.4227 H         1 SUB1        0.000
     61 H8         18.8518  -16.7083   20.6017 H         1 SUB1        0.000
     62 H9         19.5150  -16.5389   23.5247 H         1 SUB1        0.000
     63 H10        18.4903  -17.7161   22.6353 H         1 SUB1        0.000
     64 H11        16.6116  -15.2952   24.9185 H         1 SUB1        0.000
     65 H12        18.2563  -15.3112   24.9822 H         1 SUB1        0.000
     66 H13        17.4167  -16.7260   25.0368 H         1 SUB1        0.000
     67 H14        16.1655  -16.6486   21.6134 H         1 SUB1        0.000
     68 H15        15.3436  -16.2750   23.1663 H         1 SUB1        0.000
     69 H16        17.8704  -18.6199   21.6261 H         1 SUB1        0.000
     70 H17        18.2134  -20.9565   22.4251 H         1 SUB1        0.000
     71 H18        16.9605  -21.7845   24.3946 H         1 SUB1        0.000
     72 H19        15.3169  -20.3063   25.5463 H         1 SUB1        0.000
     73 H20        14.9749  -17.9832   24.7282 H         1 SUB1        0.000
     74 H21        19.4294  -10.7932   16.1379 H         1 SUB1        0.000
     75 H22        20.2342  -12.1286   14.1809 H         1 SUB1        0.000
     76 H23        18.7061  -13.7388   13.0589 H         1 SUB1        0.000
     77 H24        16.3146  -13.9309   13.8264 H         1 SUB1        0.000
@<TRIPOS>BOND
     1    1    3 1  
     2    1    2 2  
     3    3   12 1  
     4    3    4 1  
     5    4    5 1  
     6    5    6 1  
     7    6   12 1  
     8    6    7 1  
     9    7    8 1  
    10    8    9 1  
    11    9   14 1  
    12    9   13 1  
    13    9   10 1  
    14   10   12 am 
    15   10   11 2  
    16   14   15 1  
    17   15   20 ar 
    18   15   16 ar 
    19   16   17 ar 
    20   17   18 ar 
    21   18   19 ar 
    22   19   20 ar 
    23   22   23 1  
    24   22   25 1  
    25   22   21 1  
    26   25   26 1  
    27   26   27 1  
    28   27   28 1  
    29   28   29 ar 
    30   29   30 ar 
    31   29   31 ar 
    32   23   24 2  
    33   32   40 1  
    34   32   33 2  
    35   33   34 1  
    36   34   39 ar 
    37   34   35 ar 
    38   35   36 ar 
    39   36   37 ar 
    40   37   38 ar 
    41   38   39 ar 
    42   39   40 1  
    43    1   21 am 
    44   23   32 1  
    45   21   41 1  
    46   22   42 1  
    47   25   43 1  
    48   25   44 1  
    49   26   45 1  
    50   26   46 1  
    51   27   47 1  
    52   27   48 1  
    53   28   49 1  
    54   30   50 1  
    55   30   51 1  
    56   31   52 1  
    57   31   53 1  
    58    3   54 1  
    59    4   55 1  
    60    4   56 1  
    61    5   57 1  
    62    5   58 1  
    63    6   59 1  
    64    7   60 1  
    65    7   61 1  
    66    8   62 1  
    67    8   63 1  
    68   13   64 1  
    69   13   65 1  
    70   13   66 1  
    71   14   67 1  
    72   14   68 1  
    73   16   69 1  
    74   17   70 1  
    75   18   71 1  
    76   19   72 1  
    77   20   73 1  
    78   35   74 1  
    79   36   75 1  
    80   37   76 1  
    81   38   77 1  
@<TRIPOS>SUBSTRUCTURE
     1 SUB1        1 GROUP

