### Name: 1bbz_ligand
### Creating user name: arthur
### Creation time: Tue Nov 27 11:30:17 2001


@<TRIPOS>MOLECULE
1bbz_ligand
  144   150     1     0     0
SMALL
USER_CHARGES


@<TRIPOS>ATOM
      1 C          15.9570   27.9000    9.3420 C.2       1 SUB1        0.000
      2 O          15.4610   27.9470    8.2110 O.2       1 SUB1        0.000
      3 CH3        17.2670   27.1320    9.5190 C.3       1 SUB1        0.000
      4 N          15.3980   28.4630   10.4080 N.am      1 SUB1        0.000
      5 CA         14.1490   29.2120   10.3090 C.3       1 SUB1        0.000
      6 C          14.3920   30.5550    9.6200 C.2       1 SUB1        0.000
      7 O          15.4780   31.1040    9.7070 O.2       1 SUB1        0.000
      8 CB         13.5490   29.4250   11.6930 C.3       1 SUB1        0.000
      9 N          13.3940   31.0830    8.8930 N.am      1 SUB1        0.000
     10 CA         13.6190   32.3740    8.2360 C.3       1 SUB1        0.000
     11 C          13.9990   33.4520    9.2630 C.2       1 SUB1        0.000
     12 O          13.5600   33.4130   10.4100 O.2       1 SUB1        0.000
     13 CB         12.2600   32.6630    7.5960 C.3       1 SUB1        0.000
     14 CG         11.7510   31.2870    7.2600 C.3       1 SUB1        0.000
     15 CD         12.0800   30.5250    8.5270 C.3       1 SUB1        0.000
     16 N          14.8420   34.3980    8.8630 N.am      1 SUB1        0.000
     17 CA         15.2470   35.4610    9.7730 C.3       1 SUB1        0.000
     18 C          14.2250   36.5950    9.7230 C.2       1 SUB1        0.000
     19 O          14.0740   37.3490   10.6870 O.2       1 SUB1        0.000
     20 CB         16.6360   35.9820    9.3970 C.3       1 SUB1        0.000
     21 OG         17.5550   34.9070    9.2300 O.3       1 SUB1        0.000
     22 N          13.5530   36.7260    8.5810 N.am      1 SUB1        0.000
     23 CA         12.5370   37.7530    8.4010 C.3       1 SUB1        0.000
     24 C          11.2630   37.4040    9.1730 C.2       1 SUB1        0.000
     25 O          11.1340   36.3070    9.7470 O.2       1 SUB1        0.000
     26 CB         12.2480   38.0010    6.9110 C.3       1 SUB1        0.000
     27 CG         11.9590   36.7600    6.0990 C.ar      1 SUB1        0.000
     28 CD1        10.7140   36.1220    6.1750 C.ar      1 SUB1        0.000
     29 CD2        12.9280   36.2190    5.2570 C.ar      1 SUB1        0.000
     30 CE1        10.4440   34.9720    5.4300 C.ar      1 SUB1        0.000
     31 CE2        12.6710   35.0710    4.5090 C.ar      1 SUB1        0.000
     32 CZ         11.4230   34.4490    4.6020 C.ar      1 SUB1        0.000
     33 OH         11.1680   33.3000    3.8830 O.3       1 SUB1        0.000
     34 N          10.3320   38.3430    9.2110 N.am      1 SUB1        0.000
     35 CA          9.1020   38.1320    9.9510 C.3       1 SUB1        0.000
     36 C           8.0340   37.3430    9.2030 C.2       1 SUB1        0.000
     37 O           7.9760   37.3800    7.9730 O.2       1 SUB1        0.000
     38 CB          8.5080   39.4780   10.3500 C.3       1 SUB1        0.000
     39 OG          7.2810   39.2950   11.0200 O.3       1 SUB1        0.000
     40 N           7.2410   36.5350    9.9400 N.am      1 SUB1        0.000
     41 CA          6.1780   35.7700    9.2820 C.3       1 SUB1        0.000
     42 C           5.0960   36.7940    8.9500 C.2       1 SUB1        0.000
     43 O           4.9470   37.7980    9.6490 O.2       1 SUB1        0.000
     44 CB          5.7320   34.7900   10.3690 C.3       1 SUB1        0.000
     45 CG          6.0360   35.5230   11.6380 C.3       1 SUB1        0.000
     46 CD          7.3810   36.1360   11.3530 C.3       1 SUB1        0.000
     47 N           4.3550   36.5840    7.8670 N.am      1 SUB1        0.000
     48 CA          3.3310   37.5820    7.5690 C.3       1 SUB1        0.000
     49 C           2.2460   37.5330    8.6260 C.2       1 SUB1        0.000
     50 O           1.9880   36.4780    9.2120 O.2       1 SUB1        0.000
     51 CB          2.8090   37.1320    6.2070 C.3       1 SUB1        0.000
     52 CG          2.9080   35.6320    6.3030 C.3       1 SUB1        0.000
     53 CD          4.2750   35.4390    6.9450 C.3       1 SUB1        0.000
     54 N           1.6430   38.6870    8.9400 N.am      1 SUB1        0.000
     55 CA          0.5810   38.7330    9.9470 C.3       1 SUB1        0.000
     56 C          -0.6560   38.0500    9.3990 C.2       1 SUB1        0.000
     57 O          -0.7640   37.8280    8.2020 O.2       1 SUB1        0.000
     58 CB          0.3430   40.2320   10.1190 C.3       1 SUB1        0.000
     59 CG          0.6820   40.7810    8.7710 C.3       1 SUB1        0.000
     60 CD          1.9470   40.0330    8.4300 C.3       1 SUB1        0.000
     61 N          -1.5750   37.6460   10.2750 N.am      1 SUB1        0.000
     62 CA         -2.7910   36.9880    9.7930 C.3       1 SUB1        0.000
     63 C          -3.4880   37.8680    8.7490 C.2       1 SUB1        0.000
     64 O          -3.4570   39.1040    8.8390 O.2       1 SUB1        0.000
     65 CB         -3.6190   36.8520   11.0650 C.3       1 SUB1        0.000
     66 CG         -2.5530   36.6530   12.1150 C.3       1 SUB1        0.000
     67 CD         -1.5520   37.7100   11.7450 C.3       1 SUB1        0.000
     68 N          -4.0850   37.2430    7.7250 N.am      1 SUB1        0.000
     69 CA         -4.7770   37.9900    6.6730 C.3       1 SUB1        0.000
     70 C          -6.0000   38.7590    7.1750 C.2       1 SUB1        0.000
     71 O          -6.6030   38.3400    8.1920 O.co2     1 SUB1       -0.500
     72 CB         -5.1400   36.8990    5.6630 C.3       1 SUB1        0.000
     73 CG         -5.3150   35.6990    6.5210 C.3       1 SUB1        0.000
     74 CD         -4.1650   35.7930    7.4830 C.3       1 SUB1        0.000
     75 OXT        -6.3070   39.7980    6.5530 O.co2     1 SUB1       -0.500
     76 H1         17.5806   27.1798   10.5723 H         1 SUB1        0.000
     77 H2         18.0445   27.5820    8.8842 H         1 SUB1        0.000
     78 H3         17.1185   26.0817    9.2280 H         1 SUB1        0.000
     79 H4         15.8433   28.3714   11.2987 H         1 SUB1        0.000
     80 H5         13.4376   28.6307    9.7041 H         1 SUB1        0.000
     81 H6         12.6096   29.9900   11.6023 H         1 SUB1        0.000
     82 H7         14.2576   29.9895   12.3169 H         1 SUB1        0.000
     83 H8         13.3465   28.4494   12.1590 H         1 SUB1        0.000
     84 H9         14.4081   32.3005    7.4732 H         1 SUB1        0.000
     85 H10        12.3711   33.2766    6.6899 H         1 SUB1        0.000
     86 H11        11.5889   33.1719    8.3035 H         1 SUB1        0.000
     87 H12        12.2761   30.8657    6.3901 H         1 SUB1        0.000
     88 H13        10.6683   31.2954    7.0660 H         1 SUB1        0.000
     89 H14        12.1449   29.4436    8.3366 H         1 SUB1        0.000
     90 H15        11.3333   30.7150    9.3121 H         1 SUB1        0.000
     91 H16        15.2012   34.3801    7.9299 H         1 SUB1        0.000
     92 H17        15.2845   35.0593   10.7963 H         1 SUB1        0.000
     93 H18        16.9997   36.6457   10.1952 H         1 SUB1        0.000
     94 H19        16.5662   36.5455    8.4549 H         1 SUB1        0.000
     95 H20        18.4085   35.2533    8.9974 H         1 SUB1        0.000
     96 H21        13.7518   36.1014    7.8258 H         1 SUB1        0.000
     97 H22        12.9329   38.6895    8.8207 H         1 SUB1        0.000
     98 H23        13.1252   38.4988    6.4720 H         1 SUB1        0.000
     99 H24        11.3748   38.6661    6.8393 H         1 SUB1        0.000
    100 H25         9.9465   36.5283    6.8237 H         1 SUB1        0.000
    101 H26        13.8974   36.6984    5.1822 H         1 SUB1        0.000
    102 H27         9.4745   34.4920    5.4994 H         1 SUB1        0.000
    103 H28        13.4357   34.6627    3.8582 H         1 SUB1        0.000
    104 H29        10.2810   33.0077    4.0573 H         1 SUB1        0.000
    105 H30        10.4772   39.2052    8.7258 H         1 SUB1        0.000
    106 H31         9.3564   37.5720   10.8629 H         1 SUB1        0.000
    107 H32         8.3407   40.0825    9.4463 H         1 SUB1        0.000
    108 H33         9.2101   40.0008   11.0161 H         1 SUB1        0.000
    109 H34         6.9232   40.1411   11.2622 H         1 SUB1        0.000
    110 H35         6.5202   35.2448    8.3781 H         1 SUB1        0.000
    111 H36         6.3012   33.8505   10.3104 H         1 SUB1        0.000
    112 H37         4.6567   34.5730   10.2871 H         1 SUB1        0.000
    113 H38         6.0882   34.8320   12.4923 H         1 SUB1        0.000
    114 H39         5.2816   36.2980   11.8388 H         1 SUB1        0.000
    115 H40         8.1905   35.4027   11.4832 H         1 SUB1        0.000
    116 H41         7.5683   37.0072   11.9979 H         1 SUB1        0.000
    117 H42         3.7560   38.5953    7.5173 H         1 SUB1        0.000
    118 H43         3.4367   37.5210    5.3917 H         1 SUB1        0.000
    119 H44         1.7682   37.4532    6.0536 H         1 SUB1        0.000
    120 H45         2.8655   35.1652    5.3079 H         1 SUB1        0.000
    121 H46         2.1086   35.2194    6.9360 H         1 SUB1        0.000
    122 H47         5.0769   35.4768    6.1930 H         1 SUB1        0.000
    123 H48         4.3278   34.4849    7.4898 H         1 SUB1        0.000
    124 H49         0.8902   38.2616   10.8916 H         1 SUB1        0.000
    125 H50         1.0018   40.6509   10.8939 H         1 SUB1        0.000
    126 H51        -0.7058   40.4390   10.3782 H         1 SUB1        0.000
    127 H52         0.8599   41.8656    8.8155 H         1 SUB1        0.000
    128 H53        -0.1147   40.5697    8.0426 H         1 SUB1        0.000
    129 H54         2.8197   40.4674    8.9396 H         1 SUB1        0.000
    130 H55         2.1251   40.0199    7.3446 H         1 SUB1        0.000
    131 H56        -2.5700   36.0026    9.3570 H         1 SUB1        0.000
    132 H57        -4.2938   35.9850   11.0116 H         1 SUB1        0.000
    133 H58        -4.2057   37.7620   11.2589 H         1 SUB1        0.000
    134 H59        -2.1134   35.6466   12.0530 H         1 SUB1        0.000
    135 H60        -2.9524   36.8170   13.1267 H         1 SUB1        0.000
    136 H61        -0.5536   37.4719   12.1405 H         1 SUB1        0.000
    137 H62        -1.8634   38.7008   12.1075 H         1 SUB1        0.000
    138 H63        -4.0873   38.7135    6.2138 H         1 SUB1        0.000
    139 H64        -4.3304   36.7495    4.9336 H         1 SUB1        0.000
    140 H65        -6.0713   37.1451    5.1319 H         1 SUB1        0.000
    141 H66        -5.2561   34.7763    5.9251 H         1 SUB1        0.000
    142 H67        -6.2774   35.7314    7.0527 H         1 SUB1        0.000
    143 H68        -3.2363   35.4111    7.0340 H         1 SUB1        0.000
    144 H69        -4.3758   35.2439    8.4125 H         1 SUB1        0.000
@<TRIPOS>BOND
     1    2    1 2  
     2    1    3 1  
     3    5    6 1  
     4    5    8 1  
     5    4    5 1  
     6    6    7 2  
     7    9   10 1  
     8   10   13 1  
     9   10   11 1  
    10   11   12 2  
    11   14   13 1  
    12   15   14 1  
    13    9   15 1  
    14   17   18 1  
    15   17   20 1  
    16   16   17 1  
    17   20   21 1  
    18   18   19 2  
    19   23   24 1  
    20   23   26 1  
    21   22   23 1  
    22   26   27 1  
    23   27   29 ar 
    24   27   28 ar 
    25   28   30 ar 
    26   30   32 ar 
    27   32   33 1  
    28   31   32 ar 
    29   29   31 ar 
    30   24   25 2  
    31   35   36 1  
    32   35   38 1  
    33   34   35 1  
    34   38   39 1  
    35   36   37 2  
    36   40   41 1  
    37   41   44 1  
    38   41   42 1  
    39   42   43 2  
    40   45   44 1  
    41   46   45 1  
    42   40   46 1  
    43   47   48 1  
    44   48   51 1  
    45   48   49 1  
    46   49   50 2  
    47   52   51 1  
    48   53   52 1  
    49   47   53 1  
    50   54   55 1  
    51   55   58 1  
    52   55   56 1  
    53   56   57 2  
    54   59   58 1  
    55   60   59 1  
    56   54   60 1  
    57   61   62 1  
    58   62   65 1  
    59   62   63 1  
    60   63   64 2  
    61   66   65 1  
    62   67   66 1  
    63   61   67 1  
    64   68   69 1  
    65   69   72 1  
    66   69   70 1  
    67   70   71 ar 
    68   70   75 ar 
    69   73   72 1  
    70   74   73 1  
    71   68   74 1  
    72    1    4 am 
    73    6    9 am 
    74   11   16 am 
    75   18   22 am 
    76   24   34 am 
    77   36   40 am 
    78   42   47 am 
    79   49   54 am 
    80   56   61 am 
    81   63   68 am 
    82    3   76 1  
    83    3   77 1  
    84    3   78 1  
    85    4   79 1  
    86    5   80 1  
    87    8   81 1  
    88    8   82 1  
    89    8   83 1  
    90   10   84 1  
    91   13   85 1  
    92   13   86 1  
    93   14   87 1  
    94   14   88 1  
    95   15   89 1  
    96   15   90 1  
    97   16   91 1  
    98   17   92 1  
    99   20   93 1  
   100   20   94 1  
   101   21   95 1  
   102   22   96 1  
   103   23   97 1  
   104   26   98 1  
   105   26   99 1  
   106   28  100 1  
   107   29  101 1  
   108   30  102 1  
   109   31  103 1  
   110   33  104 1  
   111   34  105 1  
   112   35  106 1  
   113   38  107 1  
   114   38  108 1  
   115   39  109 1  
   116   41  110 1  
   117   44  111 1  
   118   44  112 1  
   119   45  113 1  
   120   45  114 1  
   121   46  115 1  
   122   46  116 1  
   123   48  117 1  
   124   51  118 1  
   125   51  119 1  
   126   52  120 1  
   127   52  121 1  
   128   53  122 1  
   129   53  123 1  
   130   55  124 1  
   131   58  125 1  
   132   58  126 1  
   133   59  127 1  
   134   59  128 1  
   135   60  129 1  
   136   60  130 1  
   137   62  131 1  
   138   65  132 1  
   139   65  133 1  
   140   66  134 1  
   141   66  135 1  
   142   67  136 1  
   143   67  137 1  
   144   69  138 1  
   145   72  139 1  
   146   72  140 1  
   147   73  141 1  
   148   73  142 1  
   149   74  143 1  
   150   74  144 1  
@<TRIPOS>SUBSTRUCTURE
     1 SUB1        1 GROUP

