### Name: 1bll_ligand
### Creating user name: arthur
### Creation time: Tue Nov 27 11:30:17 2001


@<TRIPOS>MOLECULE
1bll_ligand
   70    69     1     0     0
SMALL
USER_CHARGES


@<TRIPOS>ATOM
      1 N          62.1320   54.0570   16.4170 N.4       1 SUB1        1.000
      2 CA         62.6180   53.5560   17.6980 C.3       1 SUB1        0.000
      3 C          64.1250   53.2960   17.6250 C.3       1 SUB1        0.000
      4 O          64.5080   52.9030   16.3340 O.3       1 SUB1        0.000
      5 CB         62.2640   54.6320   18.6260 C.3       1 SUB1        0.000
      6 CG         61.3910   54.2440   19.7740 C.3       1 SUB1        0.000
      7 CD1        59.9240   54.5180   19.4200 C.3       1 SUB1        0.000
      8 CD2        61.5790   52.7370   19.9940 C.3       1 SUB1        0.000
      9 C          64.5100   52.2260   18.6730 C.2       1 SUB1        0.000
     10 O          63.8610   51.2860   19.0380 O.2       1 SUB1        0.000
     11 N          65.7340   52.4810   19.1880 N.am      1 SUB1        0.000
     12 CA         66.3550   51.6520   20.1540 C.3       1 SUB1        0.000
     13 C          65.8180   51.8960   21.5740 C.2       1 SUB1        0.000
     14 O          65.2280   52.9370   21.8650 O.2       1 SUB1        0.000
     15 CB         67.8960   51.8280   20.1910 C.3       1 SUB1        0.000
     16 CG1        68.2280   53.1560   20.8780 C.3       1 SUB1        0.000
     17 CG2        68.5910   50.6890   20.9490 C.3       1 SUB1        0.000
     18 N          66.0370   50.9020   22.4480 N.am      1 SUB1        0.000
     19 CA         65.3710   50.8320   23.7500 C.3       1 SUB1        0.000
     20 C          66.2340   51.3330   24.8690 C.2       1 SUB1        0.000
     21 O          67.4450   51.4050   24.6280 O.2       1 SUB1        0.000
     22 CB         65.2880   49.3460   24.1010 C.3       1 SUB1        0.000
     23 CG1        64.7270   48.5340   22.9310 C.3       1 SUB1        0.000
     24 CG2        66.7590   48.9640   24.3100 C.3       1 SUB1        0.000
     25 N          65.6980   51.6810   26.0200 N.am      1 SUB1        0.000
     26 CA         66.4480   52.1680   27.1650 C.3       1 SUB1        0.000
     27 C          65.5740   53.1410   27.9720 C.2       1 SUB1        0.000
     28 O          64.8490   53.9730   27.4220 O.co2     1 SUB1       -0.500
     29 CB         67.7750   52.7730   26.6720 C.3       1 SUB1        0.000
     30 CG         68.3880   53.8600   27.5570 C.2       1 SUB1        0.000
     31 OD1        68.0710   53.8610   28.7690 O.co2     1 SUB1       -0.500
     32 OD2        69.1330   54.6930   26.9960 O.co2     1 SUB1       -0.500
     33 OXT        65.5430   53.1200   29.2040 O.co2     1 SUB1       -0.500
     34 H          61.5186   53.3743   16.0001 H         1 SUB1        0.000
     35 HA         62.1061   52.6234   17.9778 H         1 SUB1        0.000
     36 HB2        61.7406   55.4119   18.0535 H         1 SUB1        0.000
     37 HB1        63.1978   55.0432   19.0369 H         1 SUB1        0.000
     38 HG         61.6723   54.8047   20.6776 H         1 SUB1        0.000
     39 HD13       59.7902   55.5906   19.2162 H         1 SUB1        0.000
     40 HD12       59.2820   54.2221   20.2627 H         1 SUB1        0.000
     41 HD11       59.6477   53.9378   18.5272 H         1 SUB1        0.000
     42 HD23       61.2765   52.1935   19.0868 H         1 SUB1        0.000
     43 HD22       60.9585   52.4099   20.8414 H         1 SUB1        0.000
     44 HD21       62.6367   52.5273   20.2116 H         1 SUB1        0.000
     45 H          66.2240   53.2934   18.8718 H         1 SUB1        0.000
     46 HA         66.1356   50.6099   19.8785 H         1 SUB1        0.000
     47 HB         68.2740   51.8469   19.1582 H         1 SUB1        0.000
     48 HG13       67.7815   53.9848   20.3091 H         1 SUB1        0.000
     49 HG12       69.3196   53.2852   20.9183 H         1 SUB1        0.000
     50 HG11       67.8214   53.1518   21.9001 H         1 SUB1        0.000
     51 HG23       68.2327   50.6684   21.9888 H         1 SUB1        0.000
     52 HG22       69.6788   50.8522   20.9392 H         1 SUB1        0.000
     53 HG21       68.3598   49.7300   20.4624 H         1 SUB1        0.000
     54 H          66.6818   50.1790   22.1999 H         1 SUB1        0.000
     55 HA         64.3927   51.3341   23.7229 H         1 SUB1        0.000
     56 HB         64.6861   49.1780   25.0062 H         1 SUB1        0.000
     57 HG13       63.7131   48.8876   22.6921 H         1 SUB1        0.000
     58 HG12       64.6885   47.4702   23.2080 H         1 SUB1        0.000
     59 HG11       65.3762   48.6607   22.0521 H         1 SUB1        0.000
     60 HG23       67.3194   49.1409   23.3802 H         1 SUB1        0.000
     61 HG22       66.8266   47.9003   24.5820 H         1 SUB1        0.000
     62 HG21       67.1858   49.5768   25.1176 H         1 SUB1        0.000
     63 H          64.7052   51.6048   26.1126 H         1 SUB1        0.000
     64 HA         66.6893   51.3159   27.8175 H         1 SUB1        0.000
     65 HB2        67.5969   53.2094   25.6781 H         1 SUB1        0.000
     66 HB1        68.5064   51.9558   26.5878 H         1 SUB1        0.000
     67 H1         62.9139   54.2252   15.8035 H         1 SUB1        0.000
     68 H2         61.6276   54.9176   16.5622 H         1 SUB1        0.000
     69 H3         64.6528   54.2296   17.8694 H         1 SUB1        0.000
     70 H4         65.4451   52.7481   16.3151 H         1 SUB1        0.000
@<TRIPOS>BOND
     1    2    3 1  
     2    2    5 1  
     3    2    1 1  
     4    5    6 1  
     5    6    8 1  
     6    6    7 1  
     7    3    4 1  
     8    9   10 2  
     9   12   13 1  
    10   12   15 1  
    11   12   11 1  
    12   15   16 1  
    13   15   17 1  
    14   13   14 2  
    15   19   20 1  
    16   19   22 1  
    17   19   18 1  
    18   22   23 1  
    19   22   24 1  
    20   20   21 2  
    21   26   27 1  
    22   26   29 1  
    23   26   25 1  
    24   29   30 1  
    25   30   31 ar 
    26   30   32 ar 
    27   27   33 ar 
    28   27   28 ar 
    29    9   11 am 
    30   13   18 am 
    31   20   25 am 
    32    3    9 1  
    33    1   34 1  
    34    2   35 1  
    35    5   36 1  
    36    5   37 1  
    37    6   38 1  
    38    7   39 1  
    39    7   40 1  
    40    7   41 1  
    41    8   42 1  
    42    8   43 1  
    43    8   44 1  
    44   11   45 1  
    45   12   46 1  
    46   15   47 1  
    47   16   48 1  
    48   16   49 1  
    49   16   50 1  
    50   17   51 1  
    51   17   52 1  
    52   17   53 1  
    53   18   54 1  
    54   19   55 1  
    55   22   56 1  
    56   23   57 1  
    57   23   58 1  
    58   23   59 1  
    59   24   60 1  
    60   24   61 1  
    61   24   62 1  
    62   25   63 1  
    63   26   64 1  
    64   29   65 1  
    65   29   66 1  
    66    1   67 1  
    67    1   68 1  
    68    3   69 1  
    69    4   70 1  
@<TRIPOS>SUBSTRUCTURE
     1 SUB1        1 GROUP

