### Name: 1bra_ligand
### Creating user name: arthur
### Creation time: Tue Nov 27 11:30:17 2001


@<TRIPOS>MOLECULE
1bra_ligand
   18    18     1     0     0
SMALL
USER_CHARGES


@<TRIPOS>ATOM
      1 H1          7.8294   48.8730   58.0313 H         1 SUB1        0.000
      2 H2          8.0400   46.5344   57.1651 H         1 SUB1        0.000
      3 H3          8.4134   46.2059   54.7088 H         1 SUB1        0.000
      4 H4          8.3484   48.1677   53.1847 H         1 SUB1        0.000
      5 H5          8.0260   50.4470   54.0962 H         1 SUB1        0.000
      6 H6          7.5737   52.0692   58.3867 H         1 SUB1        0.000
      7 H7          7.8519   50.3107   58.4994 H         1 SUB1        0.000
      8 H8          7.3884   51.9532   54.7810 H         1 SUB1        0.000
      9 H9          7.3259   53.0343   56.1988 H         1 SUB1        0.000
     10 C1          7.7880   49.7690   56.0970 C.ar      1 SUB1        0.000
     11 C2          7.8850   48.6980   56.9630 C.ar      1 SUB1        0.000
     12 C3          8.0550   47.3800   56.4870 C.ar      1 SUB1        0.000
     13 C4          8.2440   47.1990   55.1090 C.ar      1 SUB1        0.000
     14 C5          8.2130   48.3080   54.2510 C.ar      1 SUB1        0.000
     15 C6          8.0090   49.5910   54.7610 C.ar      1 SUB1        0.000
     16 C7          7.6200   51.0570   56.5970 C.cat     1 SUB1        0.000
     17 N1          7.6870   51.1530   57.9300 N.pl3     1 SUB1        0.500
     18 N2          7.4310   52.0900   55.8010 N.pl3     1 SUB1        0.500
@<TRIPOS>BOND
     1   11    1 1  
     2   12    2 1  
     3   13    3 1  
     4   14    4 1  
     5   15    5 1  
     6   17    6 1  
     7   17    7 1  
     8   18    8 1  
     9   18    9 1  
    10   11   10 ar 
    11   10   15 ar 
    12   10   16 1  
    13   11   12 ar 
    14   12   13 ar 
    15   13   14 ar 
    16   14   15 ar 
    17   16   17 ar 
    18   16   18 ar 
@<TRIPOS>SUBSTRUCTURE
     1 SUB1        1 GROUP

