### Name: 1cps_ligand
### Creating user name: arthur
### Creation time: Tue Nov 27 11:30:18 2001


@<TRIPOS>MOLECULE
1cps_ligand
   31    31     1     0     0
SMALL
USER_CHARGES


@<TRIPOS>ATOM
      1 H1         -3.6961   31.3914   -6.6126 H         1 SUB1        0.000
      2 H2         -1.9102   31.4837   -6.4426 H         1 SUB1        0.000
      3 H3         -3.1631   28.9619   -7.9967 H         1 SUB1        0.000
      4 H4         -2.3627   32.0583   -8.7429 H         1 SUB1        0.000
      5 H5         -4.0407   31.4337   -8.8880 H         1 SUB1        0.000
      6 H6         -4.8614   29.8617  -10.8168 H         1 SUB1        0.000
      7 H7         -0.3694   30.9108  -10.1969 H         1 SUB1        0.000
      8 H8         -3.9448   28.6867  -13.1584 H         1 SUB1        0.000
      9 H9          0.2491   29.6235  -12.6506 H         1 SUB1        0.000
     10 H10        -1.9615   28.6798  -13.7791 H         1 SUB1        0.000
     11 H11        -4.0102   27.7470   -5.0340 H         1 SUB1        0.000
     12 H12        -1.2906   28.6647   -3.9475 H         1 SUB1        0.000
     13 H13        -3.6940   29.9010   -3.0080 H         1 SUB1        0.000
     14 H14        -4.6443   30.8560   -4.1960 H         1 SUB1        0.000
     15 H15        -3.0518   31.4606   -3.6261 H         1 SUB1        0.000
     16 CA1        -2.7680   30.8040   -6.5530 C.3       1 SUB1        0.000
     17 CA         -2.5920   29.8980   -7.9100 C.3       1 SUB1        0.000
     18 C          -0.9190   29.7770   -8.0510 C.2       1 SUB1        0.000
     19 O          -0.1400   30.8640   -7.6760 O.co2     1 SUB1       -0.500
     20 CB         -2.9750   31.1660   -8.9400 C.3       1 SUB1        0.000
     21 CG         -2.5800   30.4420  -10.3910 C.ar      1 SUB1        0.000
     22 CD1        -3.8270   29.8380  -11.1400 C.ar      1 SUB1        0.000
     23 CD2        -1.1290   30.4420  -10.8120 C.ar      1 SUB1        0.000
     24 CE1        -3.2370   29.1730  -12.4970 C.ar      1 SUB1        0.000
     25 CE2        -0.7400   29.7170  -12.2170 C.ar      1 SUB1        0.000
     26 CZ         -2.1080   29.1730  -12.8250 C.ar      1 SUB1        0.000
     27 OXT        -0.6000   28.5690   -8.5190 O.co2     1 SUB1       -0.500
     28 S          -2.8410   29.7170   -5.1960 S.o2      1 SUB1        0.000
     29 N1         -3.8140   28.5090   -5.6640 N.2       1 SUB1        0.000
     30 N2         -1.4020   29.2940   -4.7270 N.2       1 SUB1        0.000
     31 CM         -3.6310   30.5620   -3.8850 C.3       1 SUB1        0.000
@<TRIPOS>BOND
     1   16    1 1  
     2   16    2 1  
     3   17    3 1  
     4   20    4 1  
     5   20    5 1  
     6   22    6 1  
     7   23    7 1  
     8   24    8 1  
     9   25    9 1  
    10   26   10 1  
    11   29   11 1  
    12   30   12 1  
    13   31   13 1  
    14   31   14 1  
    15   31   15 1  
    16   16   17 1  
    17   16   28 1  
    18   17   18 1  
    19   17   20 1  
    20   18   19 ar 
    21   18   27 ar 
    22   20   21 1  
    23   21   22 ar 
    24   21   23 ar 
    25   22   24 ar 
    26   23   25 ar 
    27   24   26 ar 
    28   25   26 ar 
    29   28   29 2  
    30   28   30 2  
    31   28   31 1  
@<TRIPOS>SUBSTRUCTURE
     1 SUB1        1 GROUP

