### Name: 1ctt_ligand
### Creating user name: arthur
### Creation time: Tue Nov 27 11:30:18 2001


@<TRIPOS>MOLECULE
1ctt_ligand
   30    31     1     0     0
SMALL
USER_CHARGES


@<TRIPOS>ATOM
      1 H1         36.2906   46.1931    7.5297 H         1 SUB1        0.000
      2 H2         34.5011   45.5558    9.4274 H         1 SUB1        0.000
      3 H3         33.8596   45.7135    7.7570 H         1 SUB1        0.000
      4 H4         32.4051   47.2564    9.1735 H         1 SUB1        0.000
      5 H5         33.3475   49.4291    9.6455 H         1 SUB1        0.000
      6 H6         36.9674   50.1383    9.5247 H         1 SUB1        0.000
      7 H7         34.8080   51.9538    8.8881 H         1 SUB1        0.000
      8 H8         36.6534   52.8665    7.8309 H         1 SUB1        0.000
      9 H9         35.5479   53.5107   10.4717 H         1 SUB1        0.000
     10 H10        37.6788   53.1593   11.3245 H         1 SUB1        0.000
     11 H11        36.0936   51.6373   12.5100 H         1 SUB1        0.000
     12 H12        33.9158   52.3647   12.7558 H         1 SUB1        0.000
     13 H13        33.7250   50.6203   12.3719 H         1 SUB1        0.000
     14 H14        32.4266   52.0008   10.9469 H         1 SUB1        0.000
     15 N1         35.3030   48.9280    9.0090 N.am      1 SUB1        0.000
     16 C2         36.2150   48.0430    8.4400 C.2       1 SUB1        0.000
     17 O2         37.3770   48.3610    8.1860 O.2       1 SUB1        0.000
     18 N3         35.7260   46.7830    8.1070 N.am      1 SUB1        0.000
     19 C4         34.3520   46.2460    8.5840 C.3       1 SUB1        0.000
     20 C5         33.4730   47.4160    9.0320 C.2       1 SUB1        0.000
     21 C6         33.9940   48.6440    9.2560 C.2       1 SUB1        0.000
     22 C1'        35.8860   50.3090    9.6320 C.3       1 SUB1        0.000
     23 C2'        35.8290   51.7290    9.2300 C.3       1 SUB1        0.000
     24 O2'        36.6940   51.9520    8.0850 O.3       1 SUB1        0.000
     25 C3'        36.0520   52.5330   10.4680 C.3       1 SUB1        0.000
     26 O3'        37.4510   52.6540   10.5530 O.3       1 SUB1        0.000
     27 C4'        35.4790   51.5220   11.6050 C.3       1 SUB1        0.000
     28 O4'        35.6150   50.1690   11.0250 O.3       1 SUB1        0.000
     29 C5'        34.0690   51.5920   11.9880 C.3       1 SUB1        0.000
     30 O5'        33.3570   51.9390   10.7650 O.3       1 SUB1        0.000
@<TRIPOS>BOND
     1   18    1 1  
     2   19    2 1  
     3   19    3 1  
     4   20    4 1  
     5   21    5 1  
     6   22    6 1  
     7   23    7 1  
     8   24    8 1  
     9   25    9 1  
    10   26   10 1  
    11   27   11 1  
    12   29   12 1  
    13   29   13 1  
    14   30   14 1  
    15   15   16 am 
    16   15   21 am 
    17   15   22 1  
    18   16   17 2  
    19   16   18 am 
    20   18   19 1  
    21   19   20 1  
    22   20   21 2  
    23   22   23 1  
    24   22   28 1  
    25   23   24 1  
    26   23   25 1  
    27   25   26 1  
    28   25   27 1  
    29   27   28 1  
    30   27   29 1  
    31   29   30 1  
@<TRIPOS>SUBSTRUCTURE
     1 SUB1        1 GROUP

