### Name: 1dbb_ligand
### Creating user name: arthur
### Creation time: Tue Nov 27 11:30:28 2001


@<TRIPOS>MOLECULE
1dbb_ligand
   53    56     1     0     0
SMALL
USER_CHARGES


@<TRIPOS>ATOM
      1 H1        -20.7883   42.2075  -15.2893 H         1 SUB1        0.000
      2 H2        -20.0826   43.8337  -15.5798 H         1 SUB1        0.000
      3 H3        -18.9031   42.0672  -16.8590 H         1 SUB1        0.000
      4 H4        -18.4868   41.2406  -15.3195 H         1 SUB1        0.000
      5 H5        -16.3084   43.8921  -14.0086 H         1 SUB1        0.000
      6 H6        -17.1161   44.3122  -11.7580 H         1 SUB1        0.000
      7 H7        -18.2354   42.9987  -11.2595 H         1 SUB1        0.000
      8 H8        -18.9519   45.7982  -12.0983 H         1 SUB1        0.000
      9 H9        -18.9886   45.1177  -10.4363 H         1 SUB1        0.000
     10 H10       -20.7205   43.5430  -11.1102 H         1 SUB1        0.000
     11 H11       -20.5517   45.0214  -13.7822 H         1 SUB1        0.000
     12 H12       -22.3088   42.6980  -12.9694 H         1 SUB1        0.000
     13 H13       -22.2658   43.5400  -14.5556 H         1 SUB1        0.000
     14 H14       -24.0835   44.2471  -13.0543 H         1 SUB1        0.000
     15 H15       -22.9829   45.5563  -13.6033 H         1 SUB1        0.000
     16 H16       -21.2573   46.3359  -12.0784 H         1 SUB1        0.000
     17 H17       -20.8283   47.2161  -10.0312 H         1 SUB1        0.000
     18 H18       -21.3621   45.7477   -9.1449 H         1 SUB1        0.000
     19 H19       -22.9526   48.0503  -10.0572 H         1 SUB1        0.000
     20 H20       -23.4226   46.7104   -8.9570 H         1 SUB1        0.000
     21 H21       -23.7575   47.0055  -11.9059 H         1 SUB1        0.000
     22 H22       -22.5045   43.1382  -10.7474 H         1 SUB1        0.000
     23 H23       -24.1886   43.7103  -10.4956 H         1 SUB1        0.000
     24 H24       -22.8633   44.3335   -9.4554 H         1 SUB1        0.000
     25 H25       -19.1823   40.9871  -13.3374 H         1 SUB1        0.000
     26 H26       -20.9477   41.3013  -13.2311 H         1 SUB1        0.000
     27 H27       -19.8675   41.7774  -11.8771 H         1 SUB1        0.000
     28 H28       -27.2172   46.0359  -11.3579 H         1 SUB1        0.000
     29 H29       -26.0215   45.4097  -12.5430 H         1 SUB1        0.000
     30 H30       -26.1858   47.1794  -12.2826 H         1 SUB1        0.000
     31 C1        -19.9120   42.8500  -15.1180 C.3       1 SUB1        0.000
     32 C2        -18.7140   42.2110  -15.7850 C.3       1 SUB1        0.000
     33 C3        -17.5580   43.1900  -15.5720 C.2       1 SUB1        0.000
     34 C4        -17.3070   43.5630  -14.2920 C.2       1 SUB1        0.000
     35 C5        -18.3340   43.5260  -13.3280 C.2       1 SUB1        0.000
     36 C6        -18.1250   43.8940  -11.8890 C.3       1 SUB1        0.000
     37 C7        -19.1200   44.8880  -11.5040 C.3       1 SUB1        0.000
     38 C8        -20.5190   44.4360  -11.7200 C.3       1 SUB1        0.000
     39 C9        -20.7390   44.1110  -13.1940 C.3       1 SUB1        0.000
     40 C10       -19.7460   43.0470  -13.6120 C.3       1 SUB1        0.000
     41 C11       -22.1270   43.6600  -13.4710 C.3       1 SUB1        0.000
     42 C12       -23.0710   44.6670  -12.9620 C.3       1 SUB1        0.000
     43 C13       -22.8880   45.1430  -11.4600 C.3       1 SUB1        0.000
     44 C14       -21.4660   45.5780  -11.3090 C.3       1 SUB1        0.000
     45 C15       -21.5600   46.3950  -10.0120 C.3       1 SUB1        0.000
     46 C16       -22.9710   46.9580   -9.9290 C.3       1 SUB1        0.000
     47 C17       -23.7580   46.3120  -11.0520 C.3       1 SUB1        0.000
     48 C18       -23.1280   44.0010  -10.4700 C.3       1 SUB1        0.000
     49 C19       -19.9500   41.6840  -12.9700 C.3       1 SUB1        0.000
     50 C20       -25.1940   46.1310  -10.7280 C.2       1 SUB1        0.000
     51 C21       -26.2210   46.1930  -11.7970 C.3       1 SUB1        0.000
     52 O3        -16.8370   43.6090  -16.5000 O.2       1 SUB1        0.000
     53 O20       -25.5790   46.0380   -9.5860 O.2       1 SUB1        0.000
@<TRIPOS>BOND
     1   31    1 1  
     2   31    2 1  
     3   32    3 1  
     4   32    4 1  
     5   34    5 1  
     6   36    6 1  
     7   36    7 1  
     8   37    8 1  
     9   37    9 1  
    10   38   10 1  
    11   39   11 1  
    12   41   12 1  
    13   41   13 1  
    14   42   14 1  
    15   42   15 1  
    16   44   16 1  
    17   45   17 1  
    18   45   18 1  
    19   46   19 1  
    20   46   20 1  
    21   47   21 1  
    22   48   22 1  
    23   48   23 1  
    24   48   24 1  
    25   49   25 1  
    26   49   26 1  
    27   49   27 1  
    28   51   28 1  
    29   51   29 1  
    30   51   30 1  
    31   31   32 1  
    32   31   40 1  
    33   32   33 1  
    34   33   34 1  
    35   33   52 2  
    36   34   35 2  
    37   35   36 1  
    38   36   37 1  
    39   37   38 1  
    40   38   39 1  
    41   38   44 1  
    42   39   40 1  
    43   39   41 1  
    44   40   35 1  
    45   40   49 1  
    46   41   42 1  
    47   42   43 1  
    48   43   44 1  
    49   43   47 1  
    50   43   48 1  
    51   44   45 1  
    52   45   46 1  
    53   46   47 1  
    54   47   50 1  
    55   50   51 1  
    56   50   53 2  
@<TRIPOS>SUBSTRUCTURE
     1 SUB1        1 GROUP

