### Name: 1dbm_ligand
### Creating user name: arthur
### Creation time: Tue Nov 27 11:30:28 2001


@<TRIPOS>MOLECULE
1dbm_ligand
   64    67     1     0     0
SMALL
USER_CHARGES


@<TRIPOS>ATOM
      1 H1        -20.6257   42.3898  -15.6059 H         1 SUB1        0.000
      2 H2        -19.9547   44.0549  -15.6674 H         1 SUB1        0.000
      3 H3        -18.4784   42.4354  -16.7994 H         1 SUB1        0.000
      4 H4        -18.3242   41.5098  -15.2677 H         1 SUB1        0.000
      5 H5        -16.4386   43.8328  -13.3798 H         1 SUB1        0.000
      6 H6        -17.5596   43.7050  -11.3052 H         1 SUB1        0.000
      7 H7        -19.0076   42.6426  -11.2702 H         1 SUB1        0.000
      8 H8        -19.0928   45.6257  -11.8529 H         1 SUB1        0.000
      9 H9        -19.3606   44.9050  -10.2295 H         1 SUB1        0.000
     10 H10       -21.1071   43.4263  -11.2272 H         1 SUB1        0.000
     11 H11       -20.6997   45.2051  -13.7251 H         1 SUB1        0.000
     12 H12       -22.6271   42.7701  -13.3224 H         1 SUB1        0.000
     13 H13       -24.4268   44.2738  -12.9216 H         1 SUB1        0.000
     14 H14       -23.4510   45.6992  -13.4142 H         1 SUB1        0.000
     15 H15       -21.5284   46.3079  -11.9005 H         1 SUB1        0.000
     16 H16       -21.0755   46.9409   -9.7755 H         1 SUB1        0.000
     17 H17       -21.3915   45.3124   -9.0865 H         1 SUB1        0.000
     18 H18       -23.2654   47.5369   -9.3610 H         1 SUB1        0.000
     19 H19       -23.5849   45.9038   -8.6844 H         1 SUB1        0.000
     20 H20       -23.9925   46.9724  -11.4622 H         1 SUB1        0.000
     21 H21       -22.6504   42.9527  -11.0949 H         1 SUB1        0.000
     22 H22       -24.3437   43.3952  -10.6908 H         1 SUB1        0.000
     23 H23       -23.0053   43.8643   -9.5884 H         1 SUB1        0.000
     24 H24       -19.6660   41.0061  -13.6113 H         1 SUB1        0.000
     25 H25       -21.3827   41.5307  -13.6770 H         1 SUB1        0.000
     26 H26       -20.4395   41.7314  -12.1614 H         1 SUB1        0.000
     27 H27       -27.4974   46.1159  -11.1850 H         1 SUB1        0.000
     28 H28       -26.3022   46.2148  -12.5223 H         1 SUB1        0.000
     29 H29       -26.4307   47.5537  -11.3317 H         1 SUB1        0.000
     30 H30       -23.7122   41.7313  -14.0798 H         1 SUB1        0.000
     31 H31       -23.5835   40.8985  -15.6662 H         1 SUB1        0.000
     32 H32       -25.6006   43.0368  -15.7903 H         1 SUB1        0.000
     33 H33       -25.9675   41.9137  -14.4373 H         1 SUB1        0.000
     34 C1        -19.8260   43.0500  -15.2390 C.3       1 SUB1        0.000
     35 C2        -18.5110   42.5030  -15.7020 C.3       1 SUB1        0.000
     36 C3        -17.5170   43.5010  -15.1990 C.2       1 SUB1        0.000
     37 O3        -16.8450   44.2110  -15.9470 O.2       1 SUB1        0.000
     38 C4        -17.3990   43.6290  -13.8510 C.2       1 SUB1        0.000
     39 C5        -18.5580   43.4880  -13.1040 C.2       1 SUB1        0.000
     40 C6        -18.5810   43.5660  -11.6890 C.3       1 SUB1        0.000
     41 C7        -19.4230   44.7260  -11.3130 C.3       1 SUB1        0.000
     42 C8        -20.8230   44.3790  -11.6980 C.3       1 SUB1        0.000
     43 C9        -20.9420   44.2450  -13.2460 C.3       1 SUB1        0.000
     44 C10       -19.9450   43.1540  -13.7220 C.3       1 SUB1        0.000
     45 C11       -22.4570   43.8130  -13.6280 C.3       1 SUB1        0.000
     46 O11       -22.6820   43.9340  -15.0350 O.3       1 SUB1        0.000
     47 C12       -23.4310   44.7390  -12.8780 C.3       1 SUB1        0.000
     48 C13       -23.1300   45.0430  -11.4020 C.3       1 SUB1        0.000
     49 C14       -21.7330   45.4650  -11.2240 C.3       1 SUB1        0.000
     50 C15       -21.7300   46.0580   -9.8210 C.3       1 SUB1        0.000
     51 C16       -23.1990   46.4560   -9.5540 C.3       1 SUB1        0.000
     52 C17       -24.0040   46.1010  -10.7910 C.3       1 SUB1        0.000
     53 C18       -23.2940   43.7200  -10.6400 C.3       1 SUB1        0.000
     54 C19       -20.3900   41.7560  -13.2600 C.3       1 SUB1        0.000
     55 C20       -25.4650   45.7900  -10.5990 C.2       1 SUB1        0.000
     56 O20       -25.8590   44.9880   -9.7620 O.2       1 SUB1        0.000
     57 C21       -26.4930   46.4640  -11.4680 C.3       1 SUB1        0.000
     58 CH1       -23.2140   43.0030  -15.7240 C.2       1 SUB1        0.000
     59 OH1       -23.2940   42.9710  -16.9780 O.2       1 SUB1        0.000
     60 CH2       -23.9190   41.8140  -15.1570 C.3       1 SUB1        0.000
     61 CH3       -25.4310   42.0260  -15.3910 C.3       1 SUB1        0.000
     62 CH4       -25.9500   40.9920  -16.3900 C.2       1 SUB1        0.000
     63 OH4       -25.6730   41.2130  -17.5940 O.co2     1 SUB1       -0.500
     64 OH5       -26.5180   39.9370  -15.9540 O.co2     1 SUB1       -0.500
@<TRIPOS>BOND
     1   34    1 1  
     2   34    2 1  
     3   35    3 1  
     4   35    4 1  
     5   38    5 1  
     6   40    6 1  
     7   40    7 1  
     8   41    8 1  
     9   41    9 1  
    10   42   10 1  
    11   43   11 1  
    12   45   12 1  
    13   47   13 1  
    14   47   14 1  
    15   49   15 1  
    16   50   16 1  
    17   50   17 1  
    18   51   18 1  
    19   51   19 1  
    20   52   20 1  
    21   53   21 1  
    22   53   22 1  
    23   53   23 1  
    24   54   24 1  
    25   54   25 1  
    26   54   26 1  
    27   57   27 1  
    28   57   28 1  
    29   57   29 1  
    30   60   30 1  
    31   60   31 1  
    32   61   32 1  
    33   61   33 1  
    34   34   35 1  
    35   34   44 1  
    36   35   36 1  
    37   36   37 2  
    38   36   38 1  
    39   38   39 2  
    40   39   40 1  
    41   39   44 1  
    42   40   41 1  
    43   41   42 1  
    44   42   43 1  
    45   42   49 1  
    46   43   44 1  
    47   43   45 1  
    48   44   54 1  
    49   45   46 1  
    50   45   47 1  
    51   46   58 1  
    52   47   48 1  
    53   48   49 1  
    54   48   52 1  
    55   48   53 1  
    56   49   50 1  
    57   50   51 1  
    58   51   52 1  
    59   52   55 1  
    60   55   56 2  
    61   55   57 1  
    62   58   59 2  
    63   58   60 1  
    64   60   61 1  
    65   61   62 1  
    66   62   63 ar 
    67   62   64 ar 
@<TRIPOS>SUBSTRUCTURE
     1 SUB1        1 GROUP

