### Name: 1dih_ligand
### Creating user name: arthur
### Creation time: Tue Nov 27 11:30:18 2001


@<TRIPOS>MOLECULE
1dih_ligand
   74    78     1     0     0
SMALL
USER_CHARGES


@<TRIPOS>ATOM
      1 H1         27.8721   11.8978   15.5337 H         1 SUB1        0.000
      2 H2         27.1236   10.8615   16.7956 H         1 SUB1        0.000
      3 H3         26.9075    9.0157   15.2890 H         1 SUB1        0.000
      4 H4         29.1567    9.7109   13.9345 H         1 SUB1        0.000
      5 H5         28.3133    8.3141   12.3433 H         1 SUB1        0.000
      6 H6         28.1950   11.7707   12.9719 H         1 SUB1        0.000
      7 H7         25.7849   10.0135   12.2366 H         1 SUB1        0.000
      8 H8         27.0054   13.3171   13.6177 H         1 SUB1        0.000
      9 H9         22.2156   15.9267   10.7632 H         1 SUB1        0.000
     10 H10        23.6174   16.2070   11.8305 H         1 SUB1        0.000
     11 H11        22.0726   11.4985   10.0496 H         1 SUB1        0.000
     12 H12        25.9144    9.1069   20.0496 H         1 SUB1        0.000
     13 H13        26.3399   10.4093   18.8878 H         1 SUB1        0.000
     14 H14        24.4240   11.2351   19.8340 H         1 SUB1        0.000
     15 H15        26.5649   12.7611   20.5486 H         1 SUB1        0.000
     16 H16        24.8842   14.1493   21.3827 H         1 SUB1        0.000
     17 H17        27.0048   11.5639   22.6374 H         1 SUB1        0.000
     18 H18        26.1869   12.9625   24.2741 H         1 SUB1        0.000
     19 H19        24.0109   11.6143   23.2417 H         1 SUB1        0.000
     20 H20        23.3809   10.5072   24.5013 H         1 SUB1        0.000
     21 H21        21.1759    9.5225   26.7206 H         1 SUB1        0.000
     22 H22        22.0996   10.3133   25.4871 H         1 SUB1        0.000
     23 H23        25.1476    7.5658   26.2413 H         1 SUB1        0.000
     24 H24        25.8096    8.9989   27.0985 H         1 SUB1        0.000
     25 H25        27.4139    8.0043   25.5131 H         1 SUB1        0.000
     26 H26        27.3325    9.4970   23.4852 H         1 SUB1        0.000
     27 AP         29.9390   10.6940   17.4930 P.3       1 SUB1        0.000
     28 AO1        30.6180    9.4230   17.8140 O.co2     1 SUB1       -0.500
     29 AO2        30.7570   11.8380   17.0670 O.co2     1 SUB1       -0.500
     30 AO5'       29.0430   10.3470   16.2330 O.3       1 SUB1        0.000
     31 AC5'       27.7720   10.8680   15.9070 C.3       1 SUB1        0.000
     32 AC4'       27.1770    9.9730   14.8190 C.3       1 SUB1        0.000
     33 AO4'       26.0030   10.5680   14.2300 O.3       1 SUB1        0.000
     34 AC3'       28.0950    9.7000   13.6470 C.3       1 SUB1        0.000
     35 AO3'       27.7430    8.4960   13.0810 O.3       1 SUB1        0.000
     36 AC2'       27.7470   10.8110   12.6750 C.3       1 SUB1        0.000
     37 AO2'       28.1220   10.5110   11.3260 O.3       1 SUB1        0.000
     38 AC1'       26.2340   10.8030   12.8570 C.3       1 SUB1        0.000
     39 AN9        25.6290   12.0730   12.5480 N.pl3     1 SUB1        0.000
     40 AC8        26.0980   13.2360   13.0210 C.2       1 SUB1        0.000
     41 AN7        25.3650   14.2540   12.6980 N.2       1 SUB1        0.000
     42 AC5        24.3140   13.6860   12.0200 C.2       1 SUB1        0.000
     43 AC6        23.2630   14.2500   11.3190 C.2       1 SUB1        0.000
     44 AN6        23.0130   15.5610   11.3030 N.pl3     1 SUB1        0.000
     45 AN1        22.4430   13.4180   10.6760 N.2       1 SUB1        0.000
     46 AC2        22.7280   12.1190   10.6590 C.2       1 SUB1        0.000
     47 AN3        23.7150   11.4750   11.2930 N.2       1 SUB1        0.000
     48 AC4        24.4390   12.3280   11.9700 C.2       1 SUB1        0.000
     49 O3         29.0940   10.7990   18.7020 O.3       1 SUB1        0.000
     50 NP         28.7880    9.7770   19.7170 P.3       1 SUB1        0.000
     51 NO1        29.9190   10.0240   20.6440 O.co2     1 SUB1       -0.500
     52 NO2        28.5050    8.4160   19.2420 O.co2     1 SUB1       -0.500
     53 NO5'       27.4960   10.2800   20.5550 O.3       1 SUB1        0.000
     54 NC5'       26.2470   10.1510   19.9530 C.3       1 SUB1        0.000
     55 NC4'       25.2100   11.0500   20.5810 C.3       1 SUB1        0.000
     56 NO4'       24.6650   10.3700   21.7110 O.3       1 SUB1        0.000
     57 NC3'       25.6940   12.3770   21.1000 C.3       1 SUB1        0.000
     58 NO3'       24.5970   13.3040   21.0580 O.3       1 SUB1        0.000
     59 NC2'       26.0180   12.0420   22.5500 C.3       1 SUB1        0.000
     60 NO2'       25.9810   13.2050   23.3790 O.3       1 SUB1        0.000
     61 NC1'       24.9070   11.0750   22.9010 C.3       1 SUB1        0.000
     62 NN1        25.3360   10.1100   23.9210 N.pl3     1 SUB1        0.000
     63 NC2        24.2980    9.9860   24.7720 C.2       1 SUB1        0.000
     64 NC3        24.2760    9.2870   25.9190 C.2       1 SUB1        0.000
     65 NC7        23.1270    9.0100   26.6370 C.2       1 SUB1        0.000
     66 NO7        23.1290    7.9330   27.5930 O.2       1 SUB1        0.000
     67 NN7        22.0460    9.6690   26.2500 N.am      1 SUB1        0.000
     68 NC4        25.4360    8.6220   26.1350 C.3       1 SUB1        0.000
     69 NC5        26.5390    8.6150   25.2950 C.2       1 SUB1        0.000
     70 NC6        26.4820    9.4210   24.1610 C.2       1 SUB1        0.000
     71 AP2'       29.2420   11.4020   10.5020 P.3       1 SUB1        0.000
     72 AOP1       28.5060   12.4590    9.7770 O.co2     1 SUB1       -0.500
     73 AOP2       30.3690   11.8120   11.4030 O.co2     1 SUB1       -0.500
     74 AOP3       30.0260   10.4910    9.6310 O.co2     1 SUB1       -0.500
@<TRIPOS>BOND
     1   31    1 1  
     2   31    2 1  
     3   32    3 1  
     4   34    4 1  
     5   35    5 1  
     6   36    6 1  
     7   38    7 1  
     8   40    8 1  
     9   44    9 1  
    10   44   10 1  
    11   46   11 1  
    12   54   12 1  
    13   54   13 1  
    14   55   14 1  
    15   57   15 1  
    16   58   16 1  
    17   59   17 1  
    18   60   18 1  
    19   61   19 1  
    20   63   20 1  
    21   67   21 1  
    22   67   22 1  
    23   68   23 1  
    24   68   24 1  
    25   69   25 1  
    26   70   26 1  
    27   27   28 ar 
    28   27   29 ar 
    29   27   30 1  
    30   27   49 1  
    31   30   31 1  
    32   31   32 1  
    33   32   33 1  
    34   32   34 1  
    35   33   38 1  
    36   34   35 1  
    37   34   36 1  
    38   36   37 1  
    39   36   38 1  
    40   37   71 1  
    41   38   39 1  
    42   39   40 1  
    43   39   48 1  
    44   40   41 2  
    45   41   42 1  
    46   42   43 1  
    47   42   48 2  
    48   43   44 1  
    49   43   45 2  
    50   45   46 1  
    51   46   47 2  
    52   47   48 1  
    53   49   50 1  
    54   50   51 ar 
    55   50   52 ar 
    56   50   53 1  
    57   53   54 1  
    58   54   55 1  
    59   55   56 1  
    60   55   57 1  
    61   56   61 1  
    62   57   58 1  
    63   57   59 1  
    64   59   60 1  
    65   59   61 1  
    66   61   62 1  
    67   62   63 1  
    68   62   70 1  
    69   63   64 2  
    70   64   65 1  
    71   64   68 1  
    72   65   66 2  
    73   65   67 am 
    74   68   69 1  
    75   69   70 2  
    76   71   72 ar 
    77   71   73 ar 
    78   71   74 ar 
@<TRIPOS>SUBSTRUCTURE
     1 SUB1        1 GROUP

