### Name: 1dwc_ligand
### Creating user name: arthur
### Creation time: Tue Nov 27 11:30:28 2001


@<TRIPOS>MOLECULE
1dwc_ligand
   72    74     1     0     0
SMALL
USER_CHARGES


@<TRIPOS>ATOM
      1 C1         29.5620   11.9600   25.3330 C.ar      1 SUB1        0.000
      2 C2         29.3790   11.3580   24.1210 C.ar      1 SUB1        0.000
      3 C3         30.1090   10.2040   23.8000 C.ar      1 SUB1        0.000
      4 C4         31.0580    9.6760   24.6800 C.ar      1 SUB1        0.000
      5 C5         31.3110   10.3570   25.8650 C.ar      1 SUB1        0.000
      6 C6         32.2630    9.8270   26.8440 C.3       1 SUB1        0.000
      7 C7         32.8640   10.9560   27.6000 C.3       1 SUB1        0.000
      8 C8         31.7960   11.7570   28.2400 C.3       1 SUB1        0.000
      9 N9         30.8260   12.2470   27.3000 N.4       1 SUB1        1.000
     10 C10        30.5960   11.5460   26.2180 C.ar      1 SUB1        0.000
     11 S11        28.7520   13.5130   25.6380 S.o2      1 SUB1        0.000
     12 N12        29.7320   14.8200   25.1830 N.am      1 SUB1        0.000
     13 C13        30.4930   14.8340   23.9360 C.3       1 SUB1        0.000
     14 C14        31.8340   14.1520   24.1210 C.2       1 SUB1        0.000
     15 O15        32.5200   14.2960   25.1110 O.2       1 SUB1        0.000
     16 C16        30.7090   16.2410   23.4460 C.3       1 SUB1        0.000
     17 C17        30.9130   17.1700   24.5960 C.3       1 SUB1        0.000
     18 C18        31.3610   18.5140   24.0090 C.3       1 SUB1        0.000
     19 N19        31.5800   19.5010   25.0670 N.pl3     1 SUB1        0.000
     20 C20        32.8380   19.8780   25.3590 C.cat     1 SUB1        0.000
     21 N21        33.8690   19.3020   24.6870 N.pl3     1 SUB1        0.500
     22 N22        33.0480   20.7010   26.4060 N.pl3     1 SUB1        0.500
     23 C23        33.7940   10.4240   28.6730 C.3       1 SUB1        0.000
     24 O24        28.5540   13.6490   27.0570 O.2       1 SUB1        0.000
     25 O25        27.6690   13.3990   24.6800 O.2       1 SUB1        0.000
     26 N26        32.3370   13.5310   23.0090 N.am      1 SUB1        0.000
     27 C27        31.6320   13.5940   21.7350 C.3       1 SUB1        0.000
     28 C28        31.5630   12.2080   21.0910 C.3       1 SUB1        0.000
     29 C29        32.9310   11.6240   21.0310 C.3       1 SUB1        0.000
     30 C30        33.5710   11.5970   22.4090 C.3       1 SUB1        0.000
     31 C31        33.6280   12.9300   23.0790 C.3       1 SUB1        0.000
     32 C32        32.2420   14.6520   20.8170 C.2       1 SUB1        0.000
     33 O33        31.8780   14.5770   19.6490 O.co2     1 SUB1       -0.500
     34 O34        32.5180   15.7230   21.3050 O.co2     1 SUB1       -0.500
     35 C35        32.8000   10.2190   20.4830 C.3       1 SUB1        0.000
     36 ****       28.6724   11.7703   23.4098 H         1 SUB1        0.000
     37 ****       29.9336    9.7117   22.8503 H         1 SUB1        0.000
     38 ****       31.5838    8.7579   24.4441 H         1 SUB1        0.000
     39 ****       33.0554    9.2699   26.3227 H         1 SUB1        0.000
     40 ****       31.7395    9.1551   27.5401 H         1 SUB1        0.000
     41 ****       33.4331   11.5933   26.9072 H         1 SUB1        0.000
     42 ****       32.2581   12.6164   28.7478 H         1 SUB1        0.000
     43 ****       31.2806   11.1274   28.9802 H         1 SUB1        0.000
     44 ****       31.1335   13.1600   27.0034 H         1 SUB1        0.000
     45 ****       29.9503   12.3308   27.7922 H         1 SUB1        0.000
     46 ****       29.7913   15.6114   25.7915 H         1 SUB1        0.000
     47 ****       29.9202   14.2830   23.1755 H         1 SUB1        0.000
     48 ****       29.8278   16.5637   22.8721 H         1 SUB1        0.000
     49 ****       31.5978   16.2663   22.7984 H         1 SUB1        0.000
     50 ****       31.6877   16.7742   25.2692 H         1 SUB1        0.000
     51 ****       29.9725   17.2951   25.1527 H         1 SUB1        0.000
     52 ****       30.5830   18.8855   23.3259 H         1 SUB1        0.000
     53 ****       32.2988   18.3690   23.4526 H         1 SUB1        0.000
     54 ****       30.7822   19.9014   25.5809 H         1 SUB1        0.000
     55 ****       34.8388   19.5780   24.8970 H         1 SUB1        0.000
     56 ****       33.6807   18.5894   23.9676 H         1 SUB1        0.000
     57 ****       32.2476   21.1240   26.8972 H         1 SUB1        0.000
     58 ****       34.0089   20.9068   26.7147 H         1 SUB1        0.000
     59 ****       34.5907    9.8274   28.2048 H         1 SUB1        0.000
     60 ****       33.2251    9.7923   29.3711 H         1 SUB1        0.000
     61 ****       34.2409   11.2663   29.2215 H         1 SUB1        0.000
     62 ****       30.5982   13.9064   21.9437 H         1 SUB1        0.000
     63 ****       31.1562   12.2959   20.0728 H         1 SUB1        0.000
     64 ****       30.9113   11.5561   21.6912 H         1 SUB1        0.000
     65 ****       33.5586   12.2263   20.3578 H         1 SUB1        0.000
     66 ****       34.5984   11.2178   22.3057 H         1 SUB1        0.000
     67 ****       32.9904   10.9141   23.0466 H         1 SUB1        0.000
     68 ****       33.9209   12.8032   24.1316 H         1 SUB1        0.000
     69 ****       34.3627   13.5700   22.5685 H         1 SUB1        0.000
     70 ****       32.3357   10.2560   19.4865 H         1 SUB1        0.000
     71 ****       32.1720    9.6192   21.1581 H         1 SUB1        0.000
     72 ****       33.7971    9.7609   20.4061 H         1 SUB1        0.000
@<TRIPOS>BOND
     1    1   11 1  
     2    1   10 ar 
     3    1    2 ar 
     4    2    3 ar 
     5    3    4 ar 
     6    4    5 ar 
     7    5   10 ar 
     8    5    6 1  
     9    6    7 1  
    10    7   23 1  
    11    7    8 1  
    12    8    9 1  
    13    9   10 1  
    14   11   25 2  
    15   11   24 2  
    16   11   12 1  
    17   12   13 1  
    18   13   16 1  
    19   13   14 1  
    20   14   26 am 
    21   14   15 2  
    22   26   31 1  
    23   26   27 1  
    24   27   32 1  
    25   27   28 1  
    26   28   29 1  
    27   29   35 1  
    28   29   30 1  
    29   30   31 1  
    30   32   34 ar 
    31   32   33 ar 
    32   16   17 1  
    33   17   18 1  
    34   18   19 1  
    35   19   20 ar 
    36   20   22 ar 
    37   20   21 ar 
    38    2   36 1  
    39    3   37 1  
    40    4   38 1  
    41    6   39 1  
    42    6   40 1  
    43    7   41 1  
    44    8   42 1  
    45    8   43 1  
    46    9   44 1  
    47    9   45 1  
    48   12   46 1  
    49   13   47 1  
    50   16   48 1  
    51   16   49 1  
    52   17   50 1  
    53   17   51 1  
    54   18   52 1  
    55   18   53 1  
    56   19   54 1  
    57   21   55 1  
    58   21   56 1  
    59   22   57 1  
    60   22   58 1  
    61   23   59 1  
    62   23   60 1  
    63   23   61 1  
    64   27   62 1  
    65   28   63 1  
    66   28   64 1  
    67   29   65 1  
    68   30   66 1  
    69   30   67 1  
    70   31   68 1  
    71   31   69 1  
    72   35   70 1  
    73   35   71 1  
    74   35   72 1  
@<TRIPOS>SUBSTRUCTURE
     1 SUB1        1 GROUP

