### Name: 1ela_ligand
### Creating user name: arthur
### Creation time: Tue Nov 27 11:30:18 2001


@<TRIPOS>MOLECULE
1ela_ligand
   64    65     1     0     0
SMALL
USER_CHARGES


@<TRIPOS>ATOM
      1 H          41.9298   22.2977   38.9249 H         1 SUB1        0.000
      2 HA         41.4548   20.7332   36.6751 H         1 SUB1        0.000
      3 HB2        41.3622   20.5147   39.6780 H         1 SUB1        0.000
      4 HB1        42.4742   19.7403   38.4990 H         1 SUB1        0.000
      5 HG2        39.8957   18.6144   38.1128 H         1 SUB1        0.000
      6 HG1        40.2216   18.6507   39.8788 H         1 SUB1        0.000
      7 HD2        42.1585   17.2857   39.6653 H         1 SUB1        0.000
      8 HD1        42.2846   17.5833   37.8983 H         1 SUB1        0.000
      9 HE2        40.2063   16.3608   37.4830 H         1 SUB1        0.000
     10 HE1        39.8964   16.2034   39.2452 H         1 SUB1        0.000
     11 HZ3        42.1142   15.0051   37.7689 H         1 SUB1        0.000
     12 HZ2        40.7717   14.2261   38.3169 H         1 SUB1        0.000
     13 HZ1        41.8445   14.8690   39.3870 H         1 SUB1        0.000
     14 HA         36.8447   21.2011   36.6061 H         1 SUB1        0.000
     15 HB2        36.9248   21.4933   34.3060 H         1 SUB1        0.000
     16 HB1        36.3141   19.8041   34.3097 H         1 SUB1        0.000
     17 HG1        38.4503   18.8922   33.8792 H         1 SUB1        0.000
     18 HG2        38.5958   20.4518   33.0001 H         1 SUB1        0.000
     19 HD1        40.3318   19.6726   35.0424 H         1 SUB1        0.000
     20 HD2        39.9867   21.3892   34.6417 H         1 SUB1        0.000
     21 H1         36.6014   20.3246   38.3410 H         1 SUB1        0.000
     22 H2         37.2451   16.7555   38.1146 H         1 SUB1        0.000
     23 H3         36.7223   15.2010   39.9746 H         1 SUB1        0.000
     24 H4         34.6061   18.3463   42.0112 H         1 SUB1        0.000
     25 H5         35.1064   19.8895   40.1455 H         1 SUB1        0.000
     26 H6         35.6071   16.2448   43.2493 H         1 SUB1        0.000
     27 H7         35.8604   13.7817   43.1030 H         1 SUB1        0.000
     28 H8         37.1917   14.6102   42.2267 H         1 SUB1        0.000
     29 H9         35.8341   13.8740   41.3093 H         1 SUB1        0.000
     30 H10        33.3260   16.4427   42.3426 H         1 SUB1        0.000
     31 H11        33.5845   14.8553   43.1425 H         1 SUB1        0.000
     32 H12        33.5976   14.9705   41.3500 H         1 SUB1        0.000
     33 C          41.0260   23.4570   37.5520 C.2       1 SUB1        0.000
     34 O          40.5080   23.4910   36.4290 O.2       1 SUB1        0.000
     35 CT         41.3570   24.7770   38.3540 C.3       1 SUB1        0.000
     36 F1         40.3210   25.6100   38.3690 F         1 SUB1        0.000
     37 F2         41.6550   24.6140   39.6510 F         1 SUB1        0.000
     38 F3         42.3640   25.4820   37.8480 F         1 SUB1        0.000
     39 N          41.3550   22.2730   38.1070 N.am      1 SUB1        0.000
     40 CA         40.9500   20.9670   37.6240 C.3       1 SUB1        0.000
     41 C          39.4240   20.9590   37.3850 C.2       1 SUB1        0.000
     42 O          38.7000   21.3740   38.2770 O.2       1 SUB1        0.000
     43 CB         41.4240   19.9850   38.7160 C.3       1 SUB1        0.000
     44 CG         40.6820   18.6700   38.8800 C.3       1 SUB1        0.000
     45 CD         41.5880   17.4430   38.7380 C.3       1 SUB1        0.000
     46 CE         40.6760   16.2380   38.4700 C.3       1 SUB1        0.000
     47 NZ         41.4070   14.9900   38.4870 N.4       1 SUB1        1.000
     48 N          38.8360   20.5900   36.2350 N.am      1 SUB1        0.000
     49 CA         37.3820   20.3770   36.1140 C.3       1 SUB1        0.000
     50 C          36.9250   19.0660   36.7880 C.2       1 SUB1        0.000
     51 O          36.9440   17.9560   36.2220 O.2       1 SUB1        0.000
     52 CB         37.1460   20.4590   34.6080 C.3       1 SUB1        0.000
     53 CG         38.4480   19.9870   33.9860 C.3       1 SUB1        0.000
     54 CD         39.5430   20.4350   34.9620 C.3       1 SUB1        0.000
     55 N1         36.5850   19.3630   38.0670 N.am      1 SUB1        0.000
     56 C1         36.2230   18.4440   39.0040 C.ar      1 SUB1        0.000
     57 C2         36.6700   17.1060   38.9640 C.ar      1 SUB1        0.000
     58 C3         36.3750   16.2270   40.0160 C.ar      1 SUB1        0.000
     59 C4         35.6300   16.6700   41.1260 C.ar      1 SUB1        0.000
     60 C5         35.1810   17.9950   41.1620 C.ar      1 SUB1        0.000
     61 C6         35.4700   18.8690   40.1080 C.ar      1 SUB1        0.000
     62 C1'        35.3340   15.7380   42.3120 C.3       1 SUB1        0.000
     63 C2'        36.1110   14.4050   42.2320 C.3       1 SUB1        0.000
     64 C3'        33.8640   15.4850   42.2850 C.3       1 SUB1        0.000
@<TRIPOS>BOND
     1   39    1 1  
     2   40    2 1  
     3   43    3 1  
     4   43    4 1  
     5   44    5 1  
     6   44    6 1  
     7   45    7 1  
     8   45    8 1  
     9   46    9 1  
    10   46   10 1  
    11   47   11 1  
    12   47   12 1  
    13   47   13 1  
    14   49   14 1  
    15   52   15 1  
    16   52   16 1  
    17   53   17 1  
    18   53   18 1  
    19   54   19 1  
    20   54   20 1  
    21   55   21 1  
    22   57   22 1  
    23   58   23 1  
    24   60   24 1  
    25   61   25 1  
    26   62   26 1  
    27   63   27 1  
    28   63   28 1  
    29   63   29 1  
    30   64   30 1  
    31   64   31 1  
    32   64   32 1  
    33   40   39 1  
    34   40   43 1  
    35   40   41 1  
    36   41   42 2  
    37   43   44 1  
    38   44   45 1  
    39   45   46 1  
    40   46   47 1  
    41   49   50 1  
    42   49   52 1  
    43   49   48 1  
    44   48   54 1  
    45   54   53 1  
    46   53   52 1  
    47   50   51 2  
    48   41   48 am 
    49   33   34 2  
    50   33   35 1  
    51   33   39 am 
    52   35   36 1  
    53   35   37 1  
    54   35   38 1  
    55   50   55 am 
    56   55   56 1  
    57   56   57 ar 
    58   56   61 ar 
    59   57   58 ar 
    60   58   59 ar 
    61   59   60 ar 
    62   59   62 1  
    63   60   61 ar 
    64   62   63 1  
    65   62   64 1  
@<TRIPOS>SUBSTRUCTURE
     1 SUB1        1 GROUP

