### Name: 1elc_ligand
### Creating user name: arthur
### Creation time: Tue Nov 27 11:30:18 2001


@<TRIPOS>MOLECULE
1elc_ligand
   70    71     1     0     0
SMALL
USER_CHARGES


@<TRIPOS>ATOM
      1 H          41.9430   21.5338   37.8793 H         1 SUB1        0.000
      2 HA         40.8789   18.9380   36.8631 H         1 SUB1        0.000
      3 HB2        41.0439   18.6876   39.7210 H         1 SUB1        0.000
      4 HB1        42.7117   18.9532   39.1089 H         1 SUB1        0.000
      5 HG2        42.5008   17.1197   37.5267 H         1 SUB1        0.000
      6 HG1        40.7483   16.9465   37.8806 H         1 SUB1        0.000
      7 HD2        41.1718   16.0912   40.0607 H         1 SUB1        0.000
      8 HD1        42.9003   16.5755   39.9962 H         1 SUB1        0.000
      9 HE2        41.7048   14.5451   38.0604 H         1 SUB1        0.000
     10 HE1        42.3533   14.0725   39.6675 H         1 SUB1        0.000
     11 HZ3        43.8305   15.4435   37.5454 H         1 SUB1        0.000
     12 HZ2        43.9672   13.8564   37.9596 H         1 SUB1        0.000
     13 HZ1        44.4268   15.0267   39.0219 H         1 SUB1        0.000
     14 H          39.4910   20.5366   36.4443 H         1 SUB1        0.000
     15 HA         38.2052   22.1957   38.5411 H         1 SUB1        0.000
     16 HB2        38.4201   23.3727   35.9446 H         1 SUB1        0.000
     17 HB1        39.9576   22.5030   36.2703 H         1 SUB1        0.000
     18 HD1        40.8229   22.8476   38.7844 H         1 SUB1        0.000
     19 HD2        38.2701   25.4734   36.5826 H         1 SUB1        0.000
     20 HE1        41.4970   24.7242   40.2570 H         1 SUB1        0.000
     21 HE2        38.9276   27.3425   38.0610 H         1 SUB1        0.000
     22 HZ         40.5357   26.9719   39.8702 H         1 SUB1        0.000
     23 H1         37.1091   23.3053   35.9463 H         1 SUB1        0.000
     24 H2         35.6518   20.2357   34.9493 H         1 SUB1        0.000
     25 H3         34.1418   20.1284   33.0086 H         1 SUB1        0.000
     26 H4         33.6705   24.4105   33.0981 H         1 SUB1        0.000
     27 H5         35.1993   24.5153   35.0455 H         1 SUB1        0.000
     28 H6         32.0561   21.4707   31.9126 H         1 SUB1        0.000
     29 H7         33.1324   21.3231   29.6618 H         1 SUB1        0.000
     30 H8         34.0622   20.4459   30.9238 H         1 SUB1        0.000
     31 H9         34.6258   22.0504   30.3455 H         1 SUB1        0.000
     32 H10        31.7548   23.8911   32.0718 H         1 SUB1        0.000
     33 H11        31.6835   23.3234   30.3691 H         1 SUB1        0.000
     34 H12        33.1596   24.1437   30.9813 H         1 SUB1        0.000
     35 C          42.8050   20.7570   36.2120 C.2       1 SUB1        0.000
     36 O          43.2220   19.6600   35.7850 O.2       1 SUB1        0.000
     37 CT         43.3350   22.1690   35.5980 C.3       1 SUB1        0.000
     38 F1         44.5760   22.5880   35.9040 F         1 SUB1        0.000
     39 F2         43.3400   22.1380   34.2310 F         1 SUB1        0.000
     40 F3         42.5450   23.2360   35.9070 F         1 SUB1        0.000
     41 N          41.9850   20.7120   37.3110 N.am      1 SUB1        0.000
     42 CA         41.1470   19.5470   37.7390 C.3       1 SUB1        0.000
     43 C          39.9350   20.2470   38.3590 C.2       1 SUB1        0.000
     44 O          39.5500   20.1350   39.5140 O.2       1 SUB1        0.000
     45 CB         41.6950   18.6340   38.8360 C.3       1 SUB1        0.000
     46 CG         41.7310   17.1930   38.3090 C.3       1 SUB1        0.000
     47 CD         42.0520   16.1940   39.4090 C.3       1 SUB1        0.000
     48 CE         42.4190   14.8100   38.8540 C.3       1 SUB1        0.000
     49 NZ         43.7640   14.7820   38.3030 N.4       1 SUB1        1.000
     50 N          39.2820   20.8490   37.3710 N.am      1 SUB1        0.000
     51 CA         38.3090   21.8990   37.4870 C.3       1 SUB1        0.000
     52 C          36.8880   21.5760   36.9920 C.2       1 SUB1        0.000
     53 O          36.1860   20.7300   37.5860 O.2       1 SUB1        0.000
     54 CB         39.0710   22.9630   36.7310 C.3       1 SUB1        0.000
     55 CG         39.5100   24.0670   37.6060 C.ar      1 SUB1        0.000
     56 CD1        40.4130   23.8390   38.6290 C.ar      1 SUB1        0.000
     57 CD2        38.9750   25.3110   37.3900 C.ar      1 SUB1        0.000
     58 CE1        40.7890   24.8850   39.4520 C.ar      1 SUB1        0.000
     59 CE2        39.3470   26.3550   38.2160 C.ar      1 SUB1        0.000
     60 CZ         40.2460   26.1450   39.2320 C.ar      1 SUB1        0.000
     61 N1         36.5460   22.4810   36.0050 N.am      1 SUB1        0.000
     62 C1         35.5440   22.3810   35.1150 C.ar      1 SUB1        0.000
     63 C2         35.2290   21.1470   34.5420 C.ar      1 SUB1        0.000
     64 C3         34.3760   21.0890   33.4530 C.ar      1 SUB1        0.000
     65 C4         33.8090   22.2580   32.9150 C.ar      1 SUB1        0.000
     66 C5         34.1070   23.5020   33.4970 C.ar      1 SUB1        0.000
     67 C6         34.9690   23.5580   34.5920 C.ar      1 SUB1        0.000
     68 C1'        32.9050   22.1250   31.6650 C.3       1 SUB1        0.000
     69 C2'        33.7410   21.4370   30.5710 C.3       1 SUB1        0.000
     70 C3'        32.3370   23.4620   31.2430 C.3       1 SUB1        0.000
@<TRIPOS>BOND
     1   41    1 1  
     2   42    2 1  
     3   45    3 1  
     4   45    4 1  
     5   46    5 1  
     6   46    6 1  
     7   47    7 1  
     8   47    8 1  
     9   48    9 1  
    10   48   10 1  
    11   49   11 1  
    12   49   12 1  
    13   49   13 1  
    14   50   14 1  
    15   51   15 1  
    16   54   16 1  
    17   54   17 1  
    18   56   18 1  
    19   57   19 1  
    20   58   20 1  
    21   59   21 1  
    22   60   22 1  
    23   61   23 1  
    24   63   24 1  
    25   64   25 1  
    26   66   26 1  
    27   67   27 1  
    28   68   28 1  
    29   69   29 1  
    30   69   30 1  
    31   69   31 1  
    32   70   32 1  
    33   70   33 1  
    34   70   34 1  
    35   42   41 1  
    36   42   45 1  
    37   42   43 1  
    38   43   44 2  
    39   45   46 1  
    40   46   47 1  
    41   47   48 1  
    42   48   49 1  
    43   51   50 1  
    44   51   54 1  
    45   51   52 1  
    46   52   53 2  
    47   54   55 1  
    48   55   56 ar 
    49   55   57 ar 
    50   57   59 ar 
    51   59   60 ar 
    52   60   58 ar 
    53   58   56 ar 
    54   43   50 am 
    55   35   36 2  
    56   35   37 1  
    57   35   41 am 
    58   37   38 1  
    59   37   39 1  
    60   37   40 1  
    61   52   61 am 
    62   61   62 1  
    63   62   63 ar 
    64   62   67 ar 
    65   63   64 ar 
    66   64   65 ar 
    67   65   66 ar 
    68   65   68 1  
    69   66   67 ar 
    70   68   69 1  
    71   68   70 1  
@<TRIPOS>SUBSTRUCTURE
     1 SUB1        1 GROUP

