### Name: 1epp_ligand
### Creating user name: arthur
### Creation time: Tue Nov 27 11:30:18 2001


@<TRIPOS>MOLECULE
1epp_ligand
  104   104     1     0     0
SMALL
USER_CHARGES


@<TRIPOS>ATOM
      1 H           4.4099   26.3672   18.4405 H         1 SUB1        0.000
      2 HA          4.1259   29.1842   19.1846 H         1 SUB1        0.000
      3 HB2         5.9787   29.4622   17.4028 H         1 SUB1        0.000
      4 HB1         5.9285   27.6785   17.1973 H         1 SUB1        0.000
      5 HD1         6.4468   26.3051   19.3357 H         1 SUB1        0.000
      6 HD2         7.2771   30.4492   19.0288 H         1 SUB1        0.000
      7 HE1         8.0299   26.0133   21.2337 H         1 SUB1        0.000
      8 HE2         8.8728   30.2086   20.9047 H         1 SUB1        0.000
      9 HZ          9.2732   28.0429   22.0160 H         1 SUB1        0.000
     10 H           3.4675   30.8074   17.8768 H         1 SUB1        0.000
     11 HA          2.6787   30.3127   15.1633 H         1 SUB1        0.000
     12 HB2         0.5796   31.9080   15.8925 H         1 SUB1        0.000
     13 HB1         0.6515   30.5912   17.1121 H         1 SUB1        0.000
     14 HG2         0.6699   28.8917   15.4065 H         1 SUB1        0.000
     15 HG1         0.9718   30.0989   14.1110 H         1 SUB1        0.000
     16 HD2        -1.5333   29.4615   14.3234 H         1 SUB1        0.000
     17 HD1        -1.2429   31.2107   14.6110 H         1 SUB1        0.000
     18 HE2        -0.5904   30.1234   17.1017 H         1 SUB1        0.000
     19 HE1        -1.9191   29.0305   16.5853 H         1 SUB1        0.000
     20 HZ3        -2.3775   31.9898   16.4487 H         1 SUB1        0.000
     21 H1          3.3535   24.2824   21.9229 H         1 SUB1        0.000
     22 H2          3.0135   26.0043   22.3047 H         1 SUB1        0.000
     23 H3          4.4027   25.5756   21.2497 H         1 SUB1        0.000
     24 H4          0.9973   24.1166   21.2049 H         1 SUB1        0.000
     25 H5          0.3563   25.3066   20.0218 H         1 SUB1        0.000
     26 H6          0.8545   25.8483   21.6604 H         1 SUB1        0.000
     27 H7          4.2294   31.4216   14.1891 H         1 SUB1        0.000
     28 H8          4.5851   34.2758   15.2241 H         1 SUB1        0.000
     29 H9          6.9863   34.0145   15.0755 H         1 SUB1        0.000
     30 H10         6.8043   32.3553   14.4118 H         1 SUB1        0.000
     31 H11         5.9248   31.6571   16.5777 H         1 SUB1        0.000
     32 H12         8.0283   31.6227   17.8247 H         1 SUB1        0.000
     33 H13         8.7112   32.8441   16.6985 H         1 SUB1        0.000
     34 H14         8.2568   31.2162   16.0900 H         1 SUB1        0.000
     35 H15         5.2529   33.9582   17.5517 H         1 SUB1        0.000
     36 H16         6.9953   34.3669   17.7049 H         1 SUB1        0.000
     37 H17         6.3019   33.0159   18.6644 H         1 SUB1        0.000
     38 H18         5.7645   34.6097   12.9227 H         1 SUB1        0.000
     39 H19         5.4387   32.8003   11.4988 H         1 SUB1        0.000
     40 H20         2.8572   33.5892   13.0927 H         1 SUB1        0.000
     41 H21         3.5553   34.1290   11.5281 H         1 SUB1        0.000
     42 H22         4.0902   36.5299   11.2660 H         1 SUB1        0.000
     43 H23         4.8543   38.1155   13.4124 H         1 SUB1        0.000
     44 H24         3.0620   38.1518   13.5272 H         1 SUB1        0.000
     45 H25         4.7839   39.1420   11.1660 H         1 SUB1        0.000
     46 H26         2.6060   39.7391   10.1453 H         1 SUB1        0.000
     47 H27         1.7348   39.0075   11.5354 H         1 SUB1        0.000
     48 H28         2.6777   37.9650   10.4171 H         1 SUB1        0.000
     49 H29         4.1600   40.3464   13.5901 H         1 SUB1        0.000
     50 H30         2.6213   40.6771   12.7242 H         1 SUB1        0.000
     51 H31         4.2165   42.5487   12.4675 H         1 SUB1        0.000
     52 H32         3.8852   41.7558   10.8901 H         1 SUB1        0.000
     53 H33         5.4239   41.4251   11.7560 H         1 SUB1        0.000
     54 H34        -2.7923   28.5470   17.7707 H         1 SUB1        0.000
     55 H35        -4.5884   27.7995   19.1654 H         1 SUB1        0.000
     56 H36        -5.5807   29.0424   18.3305 H         1 SUB1        0.000
     57 H37        -4.6308   29.4831   19.7900 H         1 SUB1        0.000
     58 S           2.5630   27.0290   19.7660 S.o2      1 SUB1        0.000
     59 O1          2.9330   27.8050   21.0240 O.2       1 SUB1        0.000
     60 O2          1.3660   27.5080   19.2970 O.2       1 SUB1        0.000
     61 N           2.4870   25.4020   20.3270 N.am      1 SUB1        0.000
     62 C1          3.3730   25.3100   21.5310 C.3       1 SUB1        0.000
     63 C2          1.0760   25.1510   20.8390 C.3       1 SUB1        0.000
     64 N           3.9000   27.1710   18.7470 N.am      1 SUB1        0.000
     65 CA          4.2750   28.4980   18.3380 C.3       1 SUB1        0.000
     66 C           3.4770   28.9910   17.1450 C.2       1 SUB1        0.000
     67 O           3.0630   28.1880   16.3340 O.2       1 SUB1        0.000
     68 CB          5.7680   28.5060   17.9040 C.3       1 SUB1        0.000
     69 CG          6.7390   28.3460   19.0560 C.ar      1 SUB1        0.000
     70 CD1         6.9860   27.1770   19.6880 C.ar      1 SUB1        0.000
     71 CD2         7.4330   29.4840   19.4970 C.ar      1 SUB1        0.000
     72 CE1         7.8860   26.9830   20.7710 C.ar      1 SUB1        0.000
     73 CE2         8.3320   29.3350   20.5590 C.ar      1 SUB1        0.000
     74 CZ          8.5660   28.1080   21.1970 C.ar      1 SUB1        0.000
     75 N           3.1770   30.2500   17.0990 N.am      1 SUB1        0.000
     76 CA          2.4710   30.9310   16.0490 C.3       1 SUB1        0.000
     77 C           3.1160   32.2470   15.7100 C.2       1 SUB1        0.000
     78 O           2.7850   33.2590   16.2730 O.2       1 SUB1        0.000
     79 CB          0.9780   30.9060   16.1100 C.3       1 SUB1        0.000
     80 CG          0.4810   29.9250   15.0800 C.3       1 SUB1        0.000
     81 CD         -1.0370   30.1940   14.9770 C.3       1 SUB1        0.000
     82 CE         -1.4680   30.0240   16.4460 C.3       1 SUB1        0.000
     83 NZ         -2.4360   31.0460   16.7740 N.am      1 SUB1        0.000
     84 N           4.0980   32.2220   14.7740 N.am      1 SUB1        0.000
     85 CA          4.9880   33.4360   14.6390 C.3       1 SUB1        0.000
     86 CB          6.3970   33.0870   15.1250 C.3       1 SUB1        0.000
     87 CG          6.6100   32.5140   16.4990 C.3       1 SUB1        0.000
     88 CD1         7.9940   32.0160   16.7980 C.3       1 SUB1        0.000
     89 CD2         6.2620   33.5470   17.7020 C.3       1 SUB1        0.000
     90 CH          5.0380   33.8050   13.1090 C.3       1 SUB1        0.000
     91 OH          5.3950   32.6280   12.4320 O.3       1 SUB1        0.000
     92 CM          3.6240   34.2220   12.6220 C.3       1 SUB1        0.000
     93 C           3.4380   35.6740   13.0400 C.2       1 SUB1        0.000
     94 O           2.9290   35.9070   14.1210 O.2       1 SUB1        0.000
     95 N           3.8490   36.6850   12.2240 N.am      1 SUB1        0.000
     96 C1          3.9160   38.0280   12.8450 C.3       1 SUB1        0.000
     97 C2          3.8700   39.1310   11.7780 C.3       1 SUB1        0.000
     98 C2'         2.6370   38.9480   10.9090 C.3       1 SUB1        0.000
     99 C3          3.6940   40.4670   12.6010 C.3       1 SUB1        0.000
    100 C4          4.3500   41.6290   11.8790 C.3       1 SUB1        0.000
    101 C          -3.4860   30.5610   17.6140 C.2       1 SUB1        0.000
    102 S          -4.7240   31.5600   18.1150 S.2       1 SUB1        0.000
    103 N          -3.4980   29.2060   18.0310 N.am      1 SUB1        0.000
    104 CM         -4.6470   28.8610   18.8830 C.3       1 SUB1        0.000
@<TRIPOS>BOND
     1   64    1 1  
     2   65    2 1  
     3   68    3 1  
     4   68    4 1  
     5   70    5 1  
     6   71    6 1  
     7   72    7 1  
     8   73    8 1  
     9   74    9 1  
    10   75   10 1  
    11   76   11 1  
    12   79   12 1  
    13   79   13 1  
    14   80   14 1  
    15   80   15 1  
    16   81   16 1  
    17   81   17 1  
    18   82   18 1  
    19   82   19 1  
    20   83   20 1  
    21   62   21 1  
    22   62   22 1  
    23   62   23 1  
    24   63   24 1  
    25   63   25 1  
    26   63   26 1  
    27   84   27 1  
    28   85   28 1  
    29   86   29 1  
    30   86   30 1  
    31   87   31 1  
    32   88   32 1  
    33   88   33 1  
    34   88   34 1  
    35   89   35 1  
    36   89   36 1  
    37   89   37 1  
    38   90   38 1  
    39   91   39 1  
    40   92   40 1  
    41   92   41 1  
    42   95   42 1  
    43   96   43 1  
    44   96   44 1  
    45   97   45 1  
    46   98   46 1  
    47   98   47 1  
    48   98   48 1  
    49   99   49 1  
    50   99   50 1  
    51  100   51 1  
    52  100   52 1  
    53  100   53 1  
    54  103   54 1  
    55  104   55 1  
    56  104   56 1  
    57  104   57 1  
    58   65   64 1  
    59   65   68 1  
    60   65   66 1  
    61   66   67 2  
    62   68   69 1  
    63   69   70 ar 
    64   69   71 ar 
    65   71   73 ar 
    66   73   74 ar 
    67   74   72 ar 
    68   72   70 ar 
    69   76   75 1  
    70   76   79 1  
    71   76   77 1  
    72   77   78 2  
    73   79   80 1  
    74   80   81 1  
    75   81   82 1  
    76   82   83 1  
    77   66   75 am 
    78   58   59 2  
    79   58   60 2  
    80   58   61 1  
    81   58   64 1  
    82   61   62 1  
    83   61   63 1  
    84   77   84 am 
    85   83  101 am 
    86   84   85 1  
    87   85   86 1  
    88   85   90 1  
    89   86   87 1  
    90   87   88 1  
    91   87   89 1  
    92   90   91 1  
    93   90   92 1  
    94   92   93 1  
    95   93   94 2  
    96   93   95 am 
    97   95   96 1  
    98   96   97 1  
    99   97   98 1  
   100   97   99 1  
   101   99  100 1  
   102  101  102 2  
   103  101  103 am 
   104  103  104 1  
@<TRIPOS>SUBSTRUCTURE
     1 SUB1        1 GROUP

