### Name: 1ets_ligand
### Creating user name: arthur
### Creation time: Tue Nov 27 11:30:19 2001


@<TRIPOS>MOLECULE
1ets_ligand
   69    72     1     0     0
SMALL
USER_CHARGES


@<TRIPOS>ATOM
      1 S         -37.3520  -31.2710   47.2640 S.o2      1 SUB1        0.000
      2 O1        -36.1430  -32.1060   47.6390 O.2       1 SUB1        0.000
      3 O2        -38.5750  -31.7440   48.0490 O.2       1 SUB1        0.000
      4 C1        -38.1890  -28.7440   48.0850 C.ar      1 SUB1        0.000
      5 C2        -37.1270  -29.5950   47.7860 C.ar      1 SUB1        0.000
      6 C3        -35.8140  -29.1890   47.9700 C.ar      1 SUB1        0.000
      7 C4        -35.5410  -27.9820   48.5800 C.ar      1 SUB1        0.000
      8 C5        -36.2550  -25.9070   49.4020 C.ar      1 SUB1        0.000
      9 C6        -37.2690  -25.0020   49.5860 C.ar      1 SUB1        0.000
     10 C7        -38.5750  -25.3700   49.3230 C.ar      1 SUB1        0.000
     11 C8        -38.9180  -26.6390   48.9050 C.ar      1 SUB1        0.000
     12 C9        -37.9070  -27.4960   48.5970 C.ar      1 SUB1        0.000
     13 C10       -36.5890  -27.1350   48.8700 C.ar      1 SUB1        0.000
     14 N         -37.7430  -31.5420   45.7410 N.am      1 SUB1        0.000
     15 CA        -36.8040  -31.2460   44.7000 C.3       1 SUB1        0.000
     16 C         -37.3310  -30.0430   43.9490 C.2       1 SUB1        0.000
     17 O         -38.3210  -29.3770   44.2970 O.2       1 SUB1        0.000
     18 H         -38.6414  -31.9176   45.5135 H         1 SUB1        0.000
     19 CA        -36.8080  -28.7550   41.9950 C.3       1 SUB1        0.000
     20 C         -35.5080  -27.9520   41.9950 C.2       1 SUB1        0.000
     21 O         -34.6750  -28.0830   41.1030 O.2       1 SUB1        0.000
     22 N         -36.5780  -29.8560   42.8920 N.am      1 SUB1        0.000
     23 CB        -37.1950  -29.2680   40.6250 C.3       1 SUB1        0.000
     24 CG        -38.5810  -29.8840   40.6330 C.ar      1 SUB1        0.000
     25 CD1       -38.7510  -31.2500   40.7230 C.ar      1 SUB1        0.000
     26 CD2       -39.6770  -29.0660   40.5420 C.ar      1 SUB1        0.000
     27 CE1       -40.0100  -31.8040   40.7820 C.ar      1 SUB1        0.000
     28 CE2       -40.9350  -29.6180   40.6020 C.ar      1 SUB1        0.000
     29 CZ        -41.1240  -30.9810   40.7110 C.ar      1 SUB1        0.000
     30 CF        -42.4130  -31.4950   40.7260 C.cat     1 SUB1        0.000
     31 NG1       -42.6090  -32.7600   41.1140 N.pl3     1 SUB1        0.500
     32 NG2       -43.4470  -30.7100   40.4430 N.pl3     1 SUB1        0.500
     33 H         -35.8120  -30.4430   42.7020 H         1 SUB1        0.000
     34 HG11      -43.5080  -33.1720   41.1480 H         1 SUB1        0.000
     35 HG12      -41.8000  -33.3100   41.3750 H         1 SUB1        0.000
     36 HG21      -44.3910  -31.0260   40.4510 H         1 SUB1        0.000
     37 HG22      -43.2680  -29.7320   40.3140 H         1 SUB1        0.000
     38 N1        -35.3110  -27.0940   42.9980 N.am      1 SUB1        0.000
     39 C2        -34.0690  -26.3880   43.2110 C.3       1 SUB1        0.000
     40 C3        -33.6300  -26.7280   44.6420 C.3       1 SUB1        0.000
     41 C4        -34.5750  -26.2790   45.7310 C.3       1 SUB1        0.000
     42 C5        -35.8200  -27.0390   45.3910 C.3       1 SUB1        0.000
     43 C6        -36.3370  -26.7910   43.9920 C.3       1 SUB1        0.000
     44 HA1       -35.8197  -31.0173   45.1345 H         1 SUB1        0.000
     45 HA2       -36.7135  -32.1051   44.0190 H         1 SUB1        0.000
     46 ****      -39.2136  -29.0565   47.9187 H         1 SUB1        0.000
     47 ****      -35.0002  -29.8213   47.6338 H         1 SUB1        0.000
     48 ****      -34.5223  -27.7052   48.8264 H         1 SUB1        0.000
     49 ****      -35.2311  -25.6666   49.6644 H         1 SUB1        0.000
     50 ****      -37.0467  -24.0007   49.9368 H         1 SUB1        0.000
     51 ****      -39.3598  -24.6331   49.4501 H         1 SUB1        0.000
     52 ****      -39.9555  -26.9426   48.8248 H         1 SUB1        0.000
     53 ****      -37.6260  -28.1250   42.3744 H         1 SUB1        0.000
     54 ****      -36.4670  -30.0301   40.3100 H         1 SUB1        0.000
     55 ****      -37.1804  -28.4302   39.9124 H         1 SUB1        0.000
     56 ****      -37.8811  -31.8963   40.7476 H         1 SUB1        0.000
     57 ****      -39.5534  -27.9955   40.4240 H         1 SUB1        0.000
     58 ****      -40.1298  -32.8766   40.8833 H         1 SUB1        0.000
     59 ****      -41.8003  -28.9662   40.5627 H         1 SUB1        0.000
     60 ****      -34.2225  -25.3039   43.1056 H         1 SUB1        0.000
     61 ****      -33.3101  -26.7228   42.4886 H         1 SUB1        0.000
     62 ****      -32.6548  -26.2514   44.8206 H         1 SUB1        0.000
     63 ****      -33.5230  -27.8204   44.7141 H         1 SUB1        0.000
     64 ****      -34.7454  -25.1930   45.6905 H         1 SUB1        0.000
     65 ****      -34.1976  -26.5541   46.7269 H         1 SUB1        0.000
     66 ****      -36.6056  -26.7506   46.1049 H         1 SUB1        0.000
     67 ****      -35.6071  -28.1132   45.4943 H         1 SUB1        0.000
     68 ****      -37.2131  -27.4315   43.8126 H         1 SUB1        0.000
     69 ****      -36.6295  -25.7348   43.8978 H         1 SUB1        0.000
@<TRIPOS>BOND
     1   15   14 1  
     2   15   16 1  
     3   16   17 2  
     4   14   18 1  
     5    1    2 2  
     6    1    3 2  
     7    1    5 1  
     8   14    1 1  
     9    5    6 ar 
    10    6    7 ar 
    11    7   13 ar 
    12    8    9 ar 
    13   13    8 ar 
    14    9   10 ar 
    15   10   11 ar 
    16   11   12 ar 
    17   12   13 ar 
    18   19   20 1  
    19   19   22 1  
    20   19   23 1  
    21   20   21 2  
    22   20   38 am 
    23   22   16 am 
    24   22   33 1  
    25   23   24 1  
    26   24   25 ar 
    27   24   26 ar 
    28   25   27 ar 
    29   26   28 ar 
    30   27   29 ar 
    31   28   29 ar 
    32   29   30 1  
    33   30   31 ar 
    34   30   32 ar 
    35   31   34 1  
    36   31   35 1  
    37   32   36 1  
    38   32   37 1  
    39   38   39 1  
    40   38   43 1  
    41   39   40 1  
    42   40   41 1  
    43   41   42 1  
    44   42   43 1  
    45   12    4 ar 
    46    5    4 ar 
    47   15   44 1  
    48   15   45 1  
    49    4   46 1  
    50    6   47 1  
    51    7   48 1  
    52    8   49 1  
    53    9   50 1  
    54   10   51 1  
    55   11   52 1  
    56   19   53 1  
    57   23   54 1  
    58   23   55 1  
    59   25   56 1  
    60   26   57 1  
    61   27   58 1  
    62   28   59 1  
    63   39   60 1  
    64   39   61 1  
    65   40   62 1  
    66   40   63 1  
    67   41   64 1  
    68   41   65 1  
    69   42   66 1  
    70   42   67 1  
    71   43   68 1  
    72   43   69 1  
@<TRIPOS>SUBSTRUCTURE
     1 SUB1        1 GROUP

