### Name: 1hbv_ligand
### Creating user name: arthur
### Creation time: Tue Nov 27 11:30:20 2001


@<TRIPOS>MOLECULE
1hbv_ligand
   95    96     1     0     0
SMALL
USER_CHARGES


@<TRIPOS>ATOM
      1 H1         -3.5183   16.4472   18.6088 H         1 SUB1        0.000
      2 H2         -4.7102   17.5440   18.3159 H         1 SUB1        0.000
      3 H3         -5.0957   16.0213   18.8080 H         1 SUB1        0.000
      4 H4         -4.0620   16.3786   20.9697 H         1 SUB1        0.000
      5 H5         -3.3241   18.6937   21.5262 H         1 SUB1        0.000
      6 H6         -3.6776   19.2162   19.8444 H         1 SUB1        0.000
      7 H7         -2.3647   18.0315   20.1596 H         1 SUB1        0.000
      8 H8         -5.8796   16.4397   22.2879 H         1 SUB1        0.000
      9 H9         -7.8607   18.6265   21.9954 H         1 SUB1        0.000
     10 H10        -9.7191   17.0054   21.7856 H         1 SUB1        0.000
     11 H11        -8.5384   15.6543   21.7019 H         1 SUB1        0.000
     12 H12        -8.5959   16.8795   20.3896 H         1 SUB1        0.000
     13 H13        -6.5653   19.1285   24.0868 H         1 SUB1        0.000
     14 H14        -6.7552   17.0843   26.3216 H         1 SUB1        0.000
     15 H15        -5.8752   18.9763   27.7469 H         1 SUB1        0.000
     16 H16        -6.0338   20.0637   26.3260 H         1 SUB1        0.000
     17 H17        -4.0960   20.2743   25.0587 H         1 SUB1        0.000
     18 H18        -2.1084   19.3019   23.9356 H         1 SUB1        0.000
     19 H19        -1.5369   16.9210   24.2913 H         1 SUB1        0.000
     20 H20        -2.9180   15.5258   25.7890 H         1 SUB1        0.000
     21 H21        -4.8907   16.4799   26.9362 H         1 SUB1        0.000
     22 H22        -8.6523   19.4703   26.5414 H         1 SUB1        0.000
     23 H23        -8.2540   18.3131   27.8562 H         1 SUB1        0.000
     24 H24        -7.5408   15.2839   24.2296 H         1 SUB1        0.000
     25 H25        -9.1508   15.7988   23.6216 H         1 SUB1        0.000
     26 H26        -8.0283   15.8120   26.4069 H         1 SUB1        0.000
     27 H27        -9.6814   15.4247   25.8203 H         1 SUB1        0.000
     28 H28        -9.4341   17.8992   25.3048 H         1 SUB1        0.000
     29 H29       -11.0103   18.6135   26.5706 H         1 SUB1        0.000
     30 H30       -12.5846   16.7756   25.8161 H         1 SUB1        0.000
     31 H31       -11.1492   15.7321   25.5378 H         1 SUB1        0.000
     32 H32       -11.3565   17.2453   24.5923 H         1 SUB1        0.000
     33 H33       -12.1241   15.4924   27.4230 H         1 SUB1        0.000
     34 H34       -12.9805   16.3219   30.0105 H         1 SUB1        0.000
     35 H35       -14.0798   14.5670   28.3864 H         1 SUB1        0.000
     36 H36       -15.0092   13.3234   30.3142 H         1 SUB1        0.000
     37 H37       -14.8479   15.0806   30.6499 H         1 SUB1        0.000
     38 H38       -13.6558   13.9228   31.3319 H         1 SUB1        0.000
     39 H39       -12.1616   13.0576   28.0661 H         1 SUB1        0.000
     40 H40       -13.5699   12.2103   28.7910 H         1 SUB1        0.000
     41 H41       -12.1740   12.6756   29.8212 H         1 SUB1        0.000
     42 H42       -12.1904   16.0146   31.9623 H         1 SUB1        0.000
     43 H43       -10.0963   14.0658   32.6253 H         1 SUB1        0.000
     44 H44        -9.4101   16.6224   33.9468 H         1 SUB1        0.000
     45 H45        -7.9447   17.5461   32.2405 H         1 SUB1        0.000
     46 H46        -9.6407   17.6182   31.6532 H         1 SUB1        0.000
     47 H47        -8.5302   16.3476   31.0375 H         1 SUB1        0.000
     48 H48        -8.3010   14.3522   33.9820 H         1 SUB1        0.000
     49 H49        -7.1657   15.6279   33.4249 H         1 SUB1        0.000
     50 H50        -7.9359   14.5277   32.2320 H         1 SUB1        0.000
     51 H51       -12.8203   12.2893   34.4417 H         1 SUB1        0.000
     52 H52       -11.6773   12.7110   33.1218 H         1 SUB1        0.000
     53 H53       -13.2884   13.5014   33.2014 H         1 SUB1        0.000
     54 N1         -4.4280   16.7710   18.8980 N.4       1 SUB1        1.000
     55 C2         -4.3680   17.2180   20.3280 C.3       1 SUB1        0.000
     56 C3         -3.3620   18.3720   20.4750 C.3       1 SUB1        0.000
     57 C4         -5.7600   17.7000   20.7290 C.2       1 SUB1        0.000
     58 O5         -6.2830   18.5900   20.0580 O.2       1 SUB1        0.000
     59 N6         -6.3570   17.1560   21.7790 N.am      1 SUB1        0.000
     60 C7         -7.6830   17.5640   22.2180 C.3       1 SUB1        0.000
     61 C8         -8.7050   16.7170   21.4720 C.3       1 SUB1        0.000
     62 C9         -7.6940   17.3450   23.7270 C.2       1 SUB1        0.000
     63 C10        -7.0530   18.2710   24.5480 C.2       1 SUB1        0.000
     64 C11        -7.0060   18.1300   26.0900 C.3       1 SUB1        0.000
     65 C12        -5.8960   19.0210   26.6480 C.3       1 SUB1        0.000
     66 C13        -4.6210   18.4400   26.0610 C.ar      1 SUB1        0.000
     67 C14        -3.8370   19.2340   25.2190 C.ar      1 SUB1        0.000
     68 C15        -2.7210   18.6870   24.5850 C.ar      1 SUB1        0.000
     69 C16        -2.3980   17.3520   24.7890 C.ar      1 SUB1        0.000
     70 C17        -3.1800   16.5660   25.6330 C.ar      1 SUB1        0.000
     71 C18        -4.2900   17.0960   26.2770 C.ar      1 SUB1        0.000
     72 C19        -8.3400   18.4400   26.7670 C.3       1 SUB1        0.000
     73 C20        -8.3080   16.0710   24.2740 C.3       1 SUB1        0.000
     74 C21        -8.8420   16.1310   25.7390 C.3       1 SUB1        0.000
     75 N22        -9.3220   17.4680   26.2090 N.4       1 SUB1        1.000
     76 C23       -10.7340   17.5520   26.6530 C.3       1 SUB1        0.000
     77 C24       -11.5120   16.7700   25.5720 C.3       1 SUB1        0.000
     78 C25       -11.1870   17.1440   28.0890 C.2       1 SUB1        0.000
     79 O26       -10.8830   17.8630   29.0480 O.2       1 SUB1        0.000
     80 N27       -11.9160   16.0210   28.2460 N.am      1 SUB1        0.000
     81 C28       -12.4280   15.5100   29.5150 C.3       1 SUB1        0.000
     82 C29       -13.4480   14.3020   29.2470 C.3       1 SUB1        0.000
     83 C30       -14.2960   14.1470   30.4660 C.3       1 SUB1        0.000
     84 C31       -12.7940   12.9710   28.9620 C.3       1 SUB1        0.000
     85 C32       -11.2970   15.0750   30.4500 C.2       1 SUB1        0.000
     86 O33       -10.3540   14.3820   30.0320 O.2       1 SUB1        0.000
     87 N34       -11.4050   15.4490   31.7110 N.am      1 SUB1        0.000
     88 C35       -10.4580   15.0950   32.7660 C.3       1 SUB1        0.000
     89 C37        -9.2350   16.0340   33.0340 C.3       1 SUB1        0.000
     90 C38        -8.8090   16.9480   31.9160 C.3       1 SUB1        0.000
     91 C39        -8.0810   15.0700   33.1780 C.3       1 SUB1        0.000
     92 C40       -11.3900   15.2500   33.9910 C.2       1 SUB1        0.000
     93 O36       -12.0240   16.3120   34.1420 O.2       1 SUB1        0.000
     94 O41       -11.8900   14.1670   34.6250 O.3       1 SUB1        0.000
     95 C42       -12.4540   13.1010   33.7960 C.3       1 SUB1        0.000
@<TRIPOS>BOND
     1   54    1 1  
     2   54    2 1  
     3   54    3 1  
     4   55    4 1  
     5   56    5 1  
     6   56    6 1  
     7   56    7 1  
     8   59    8 1  
     9   60    9 1  
    10   61   10 1  
    11   61   11 1  
    12   61   12 1  
    13   63   13 1  
    14   64   14 1  
    15   65   15 1  
    16   65   16 1  
    17   67   17 1  
    18   68   18 1  
    19   69   19 1  
    20   70   20 1  
    21   71   21 1  
    22   72   22 1  
    23   72   23 1  
    24   73   24 1  
    25   73   25 1  
    26   74   26 1  
    27   74   27 1  
    28   75   28 1  
    29   76   29 1  
    30   77   30 1  
    31   77   31 1  
    32   77   32 1  
    33   80   33 1  
    34   81   34 1  
    35   82   35 1  
    36   83   36 1  
    37   83   37 1  
    38   83   38 1  
    39   84   39 1  
    40   84   40 1  
    41   84   41 1  
    42   87   42 1  
    43   88   43 1  
    44   89   44 1  
    45   90   45 1  
    46   90   46 1  
    47   90   47 1  
    48   91   48 1  
    49   91   49 1  
    50   91   50 1  
    51   95   51 1  
    52   95   52 1  
    53   95   53 1  
    54   54   55 1  
    55   55   56 1  
    56   55   57 1  
    57   57   58 2  
    58   57   59 am 
    59   59   60 1  
    60   60   61 1  
    61   60   62 1  
    62   62   63 2  
    63   62   73 1  
    64   63   64 1  
    65   64   65 1  
    66   64   72 1  
    67   65   66 1  
    68   66   67 ar 
    69   66   71 ar 
    70   67   68 ar 
    71   68   69 ar 
    72   69   70 ar 
    73   70   71 ar 
    74   72   75 1  
    75   73   74 1  
    76   74   75 1  
    77   75   76 1  
    78   76   77 1  
    79   76   78 1  
    80   78   79 2  
    81   78   80 am 
    82   80   81 1  
    83   81   82 1  
    84   81   85 1  
    85   82   83 1  
    86   82   84 1  
    87   85   86 2  
    88   85   87 am 
    89   87   88 1  
    90   88   89 1  
    91   88   92 1  
    92   89   90 1  
    93   89   91 1  
    94   92   93 2  
    95   92   94 1  
    96   94   95 1  
@<TRIPOS>SUBSTRUCTURE
     1 SUB1        1 GROUP

