### Name: 1hew_ligand
### Creating user name: arthur
### Creation time: Tue Nov 27 11:30:20 2001


@<TRIPOS>MOLECULE
1hew_ligand
   84    86     1     0     0
SMALL
USER_CHARGES


@<TRIPOS>ATOM
      1 H1          5.6336   26.2143   25.6233 H         1 SUB1        0.000
      2 H2          5.2880   23.3839   26.8736 H         1 SUB1        0.000
      3 H3          3.4707   25.8142   27.0894 H         1 SUB1        0.000
      4 H4          5.3512   24.7099   29.2579 H         1 SUB1        0.000
      5 H5          6.0481   27.1945   27.6445 H         1 SUB1        0.000
      6 H6          6.8549   26.9949   30.0236 H         1 SUB1        0.000
      7 H7          8.1461   27.0912   28.7785 H         1 SUB1        0.000
      8 H8          2.4800   21.5074   23.6556 H         1 SUB1        0.000
      9 H9          3.2483   22.9654   22.9411 H         1 SUB1        0.000
     10 H10         1.8181   23.1383   24.0141 H         1 SUB1        0.000
     11 H11         3.6923   24.6722   24.6961 H         1 SUB1        0.000
     12 H12         7.4123   25.0106   24.6539 H         1 SUB1        0.000
     13 H13         2.5301   23.7378   27.5927 H         1 SUB1        0.000
     14 H14         8.5794   25.4016   30.3930 H         1 SUB1        0.000
     15 H15         4.6780   25.8512   31.3986 H         1 SUB1        0.000
     16 H16         2.9900   28.4873   31.0939 H         1 SUB1        0.000
     17 H17         4.3343   27.2687   33.6206 H         1 SUB1        0.000
     18 H18         1.4366   27.3689   32.5573 H         1 SUB1        0.000
     19 H19         3.3895   24.9410   32.8603 H         1 SUB1        0.000
     20 H20         1.0334   24.4857   33.7504 H         1 SUB1        0.000
     21 H21         1.5063   23.5001   32.3250 H         1 SUB1        0.000
     22 H22         6.4548   31.6387   30.9037 H         1 SUB1        0.000
     23 H23         7.1144   30.0483   30.3916 H         1 SUB1        0.000
     24 H24         6.9475   30.4310   32.1388 H         1 SUB1        0.000
     25 H25         5.9150   28.1730   31.5313 H         1 SUB1        0.000
     26 H26         4.0848   29.5675   33.6195 H         1 SUB1        0.000
     27 H27        -0.6296   24.5785   32.0026 H         1 SUB1        0.000
     28 H28        -0.2586   26.2823   34.8537 H         1 SUB1        0.000
     29 H29         1.3425   27.1135   37.2869 H         1 SUB1        0.000
     30 H30        -1.4329   25.9267   37.0534 H         1 SUB1        0.000
     31 H31        -0.8800   28.8941   37.5437 H         1 SUB1        0.000
     32 H32        -1.8841   27.8266   34.8578 H         1 SUB1        0.000
     33 H33        -1.3169   30.4994   36.1143 H         1 SUB1        0.000
     34 H34        -2.5724   30.0307   34.9182 H         1 SUB1        0.000
     35 H35         2.9850   22.7936   38.1167 H         1 SUB1        0.000
     36 H36         1.9512   22.5496   36.6682 H         1 SUB1        0.000
     37 H37         1.1962   22.8504   38.2701 H         1 SUB1        0.000
     38 H38         0.3725   24.3873   36.2729 H         1 SUB1        0.000
     39 H39        -0.2316   25.9082   39.0738 H         1 SUB1        0.000
     40 H40        -2.9524   27.8824   38.1362 H         1 SUB1        0.000
     41 H41        -0.9166   31.4012   33.9920 H         1 SUB1        0.000
     42 C1          5.9910   25.2370   25.9800 C.3       1 SUB1        0.000
     43 C2          4.8500   24.3020   26.4550 C.3       1 SUB1        0.000
     44 C3          4.0460   24.9910   27.5380 C.3       1 SUB1        0.000
     45 C4          5.0380   25.5480   28.6180 C.3       1 SUB1        0.000
     46 C5          6.3140   26.2330   28.1080 C.3       1 SUB1        0.000
     47 C6          7.3400   26.4660   29.1900 C.3       1 SUB1        0.000
     48 C7          3.6350   22.6680   25.0080 C.2       1 SUB1        0.000
     49 C8          2.7370   22.5630   23.8280 C.3       1 SUB1        0.000
     50 N2          4.0070   23.9390   25.2990 N.am      1 SUB1        0.000
     51 O1          6.6920   24.4910   24.9910 O.3       1 SUB1        0.000
     52 O3          3.1500   24.0980   28.2160 O.3       1 SUB1        0.000
     53 O4          4.1960   26.5710   29.4630 O.3       1 SUB1        0.000
     54 O5          6.9360   25.3350   27.1160 O.3       1 SUB1        0.000
     55 O6          7.9440   25.1940   29.7180 O.3       1 SUB1        0.000
     56 O7          3.9990   21.7860   25.6410 O.2       1 SUB1        0.000
     57 C1          3.8850   26.4270   30.8990 C.3       1 SUB1        0.000
     58 C2          3.8030   27.9230   31.5740 C.3       1 SUB1        0.000
     59 C3          3.5010   27.7600   33.0970 C.3       1 SUB1        0.000
     60 C4          2.2210   26.8480   33.1260 C.3       1 SUB1        0.000
     61 C5          2.4790   25.4100   32.4590 C.3       1 SUB1        0.000
     62 C6          1.2890   24.5180   32.6810 C.3       1 SUB1        0.000
     63 C7          5.1200   29.9960   31.1360 C.2       1 SUB1        0.000
     64 C8          6.5000   30.5660   31.1430 C.3       1 SUB1        0.000
     65 N2          5.0550   28.6710   31.4200 N.am      1 SUB1        0.000
     66 O3          3.2810   29.0630   33.6640 O.3       1 SUB1        0.000
     67 O4          1.7170   26.5730   34.4670 O.3       1 SUB1        0.000
     68 O5          2.6070   25.6930   31.0100 O.3       1 SUB1        0.000
     69 O6          0.1470   25.1140   31.8900 O.3       1 SUB1        0.000
     70 O7          4.1770   30.6160   30.9140 O.2       1 SUB1        0.000
     71 C1          0.5500   26.9010   35.2700 C.3       1 SUB1        0.000
     72 C2          0.5900   26.5200   36.7470 C.3       1 SUB1        0.000
     73 C3         -0.7560   26.7370   37.3620 C.3       1 SUB1        0.000
     74 C4         -1.3660   28.1090   36.9460 C.3       1 SUB1        0.000
     75 C5         -1.2100   28.4610   35.4520 C.3       1 SUB1        0.000
     76 C6         -1.5120   29.9310   35.1930 C.3       1 SUB1        0.000
     77 C7          2.0740   24.5580   37.3560 C.2       1 SUB1        0.000
     78 C8          2.0500   23.0920   37.6200 C.3       1 SUB1        0.000
     79 N2          0.9710   25.0330   36.7470 N.am      1 SUB1        0.000
     80 O3         -0.6030   26.7370   38.7950 O.3       1 SUB1        0.000
     81 O4         -2.8070   28.0960   37.2220 O.3       1 SUB1        0.000
     82 O5          0.1460   28.2660   35.0430 O.3       1 SUB1        0.000
     83 O6         -0.6950   30.4860   34.1180 O.3       1 SUB1        0.000
     84 O7          2.9470   25.2480   37.6530 O.2       1 SUB1        0.000
@<TRIPOS>BOND
     1   42    1 1  
     2   43    2 1  
     3   44    3 1  
     4   45    4 1  
     5   46    5 1  
     6   47    6 1  
     7   47    7 1  
     8   49    8 1  
     9   49    9 1  
    10   49   10 1  
    11   50   11 1  
    12   51   12 1  
    13   52   13 1  
    14   55   14 1  
    15   57   15 1  
    16   58   16 1  
    17   59   17 1  
    18   60   18 1  
    19   61   19 1  
    20   62   20 1  
    21   62   21 1  
    22   64   22 1  
    23   64   23 1  
    24   64   24 1  
    25   65   25 1  
    26   66   26 1  
    27   69   27 1  
    28   71   28 1  
    29   72   29 1  
    30   73   30 1  
    31   74   31 1  
    32   75   32 1  
    33   76   33 1  
    34   76   34 1  
    35   78   35 1  
    36   78   36 1  
    37   78   37 1  
    38   79   38 1  
    39   80   39 1  
    40   81   40 1  
    41   83   41 1  
    42   42   43 1  
    43   42   51 1  
    44   42   54 1  
    45   43   44 1  
    46   43   50 1  
    47   44   45 1  
    48   44   52 1  
    49   45   46 1  
    50   45   53 1  
    51   46   47 1  
    52   46   54 1  
    53   47   55 1  
    54   48   49 1  
    55   50   48 am 
    56   48   56 2  
    57   53   57 1  
    58   57   58 1  
    59   57   68 1  
    60   58   59 1  
    61   58   65 1  
    62   59   60 1  
    63   59   66 1  
    64   60   61 1  
    65   60   67 1  
    66   61   62 1  
    67   61   68 1  
    68   62   69 1  
    69   63   64 1  
    70   65   63 am 
    71   63   70 2  
    72   67   71 1  
    73   71   72 1  
    74   71   82 1  
    75   72   73 1  
    76   72   79 1  
    77   73   74 1  
    78   73   80 1  
    79   74   75 1  
    80   74   81 1  
    81   75   76 1  
    82   75   82 1  
    83   76   83 1  
    84   77   78 1  
    85   79   77 am 
    86   77   84 2  
@<TRIPOS>SUBSTRUCTURE
     1 SUB1        1 GROUP

