### Name: 1hsl_ligand
### Creating user name: arthur
### Creation time: Tue Nov 27 11:30:20 2001


@<TRIPOS>MOLECULE
1hsl_ligand
   20    20     1     0     0
SMALL
USER_CHARGES


@<TRIPOS>ATOM
      1 H         -22.9046  -33.5105   -2.1874 H         1 SUB1        0.000
      2 HA        -22.1121  -33.7601   -4.7643 H         1 SUB1        0.000
      3 HB2       -20.7179  -31.7666   -4.5360 H         1 SUB1        0.000
      4 HB1       -19.7692  -33.2779   -4.7416 H         1 SUB1        0.000
      5 HD2       -20.4975  -32.2920   -1.0408 H         1 SUB1        0.000
      6 HE1       -16.6009  -30.9511   -1.9565 H         1 SUB1        0.000
      7 H1        -23.5080  -32.7387   -3.5101 H         1 SUB1        0.000
      8 H2        -22.3335  -32.0242   -2.6048 H         1 SUB1        0.000
      9 H3        -18.3359  -31.2764   -0.1646 H         1 SUB1        0.000
     10 N         -22.6800  -32.9020   -2.9590 N.4       1 SUB1        1.000
     11 CA        -21.6600  -33.5270   -3.7890 C.3       1 SUB1        0.000
     12 C         -21.2250  -34.7910   -3.1160 C.2       1 SUB1        0.000
     13 O         -20.5050  -35.5460   -3.7350 O.co2     1 SUB1       -0.500
     14 CB        -20.3710  -32.6840   -4.0380 C.3       1 SUB1        0.000
     15 CG        -19.3770  -32.2070   -2.9570 C.2       1 SUB1        0.000
     16 ND1       -18.1320  -31.7750   -3.2100 N.2       1 SUB1        0.000
     17 CD2       -19.5990  -32.0440   -1.6040 C.2       1 SUB1        0.000
     18 CE1       -17.6020  -31.3600   -2.0850 C.2       1 SUB1        0.000
     19 NE2       -18.4900  -31.5260   -1.1520 N.pl3     1 SUB1        0.000
     20 OXT       -21.6770  -35.0490   -1.9960 O.co2     1 SUB1       -0.500
@<TRIPOS>BOND
     1   10    1 1  
     2   11    2 1  
     3   14    3 1  
     4   14    4 1  
     5   17    5 1  
     6   18    6 1  
     7   10    7 1  
     8   10    8 1  
     9   19    9 1  
    10   11   10 1  
    11   11   14 1  
    12   11   12 1  
    13   12   13 ar 
    14   12   20 ar 
    15   14   15 1  
    16   15   16 1  
    17   15   17 2  
    18   17   19 1  
    19   19   18 1  
    20   18   16 2  
@<TRIPOS>SUBSTRUCTURE
     1 SUB1        1 GROUP

