### Name: 1inc_ligand
### Creating user name: arthur
### Creation time: Tue Nov 27 11:30:20 2001


@<TRIPOS>MOLECULE
1inc_ligand
   45    45     1     0     0
SMALL
USER_CHARGES


@<TRIPOS>ATOM
      1 H1         -9.1939   23.1435   37.6913 H         1 SUB1        0.000
      2 H2        -13.1760   24.7124   37.3371 H         1 SUB1        0.000
      3 H3        -13.5320   23.3292   35.3079 H         1 SUB1        0.000
      4 H4        -11.7272   21.8764   34.4338 H         1 SUB1        0.000
      5 H5         -9.5762   20.8629   34.8697 H         1 SUB1        0.000
      6 H6         -7.6585   20.8939   33.4692 H         1 SUB1        0.000
      7 H7         -6.3206   21.1253   36.1250 H         1 SUB1        0.000
      8 H8         -4.0985   20.3078   35.4209 H         1 SUB1        0.000
      9 H9         -4.4498   21.9687   34.8339 H         1 SUB1        0.000
     10 H10        -4.5576   20.5756   33.7051 H         1 SUB1        0.000
     11 H11        -7.7035   19.2016   35.4267 H         1 SUB1        0.000
     12 H12        -6.0422   18.7224   35.9134 H         1 SUB1        0.000
     13 H13        -6.4830   18.7936   34.1735 H         1 SUB1        0.000
     14 H14        -5.5571   22.9946   33.9256 H         1 SUB1        0.000
     15 H15        -7.4443   25.9155   29.5368 H         1 SUB1        0.000
     16 H16        -7.5772   26.0794   31.3206 H         1 SUB1        0.000
     17 H17        -8.0909   24.5568   30.5178 H         1 SUB1        0.000
     18 H18        -5.6854   24.5179   28.5148 H         1 SUB1        0.000
     19 H19        -6.2467   23.0631   29.4064 H         1 SUB1        0.000
     20 H20        -4.5327   23.5862   29.5297 H         1 SUB1        0.000
     21 H21        -4.9596   26.5474   29.7744 H         1 SUB1        0.000
     22 H22        -3.8980   25.5612   30.8359 H         1 SUB1        0.000
     23 H23        -5.1485   26.6291   31.5588 H         1 SUB1        0.000
     24 C2        -10.1330   23.2110   37.1540 C.ar      1 SUB1        0.000
     25 C3        -11.1320   24.0910   37.6090 C.ar      1 SUB1        0.000
     26 CL        -10.8240   25.0840   38.8990 Cl        1 SUB1        0.000
     27 C4        -12.3700   24.0940   36.9590 C.ar      1 SUB1        0.000
     28 C5        -12.5750   23.2980   35.8160 C.ar      1 SUB1        0.000
     29 C6        -11.5620   22.4680   35.3270 C.ar      1 SUB1        0.000
     30 C7        -10.3410   22.4040   35.9910 C.ar      1 SUB1        0.000
     31 N1         -9.3560   21.7460   35.2840 N.am      1 SUB1        0.000
     32 C8         -8.1010   22.2410   35.1240 C.2       1 SUB1        0.000
     33 O2         -7.7730   23.4010   35.4460 O.2       1 SUB1        0.000
     34 C9         -7.1340   21.5450   34.1840 C.3       1 SUB1        0.000
     35 C10        -6.2000   20.7240   35.1080 C.3       1 SUB1        0.000
     36 C11        -4.7220   20.9070   34.7410 C.3       1 SUB1        0.000
     37 C12        -6.6380   19.2570   35.1590 C.3       1 SUB1        0.000
     38 N2         -6.3520   22.6080   33.4580 N.am      1 SUB1        0.000
     39 C13        -6.6410   23.0840   32.2170 C.2       1 SUB1        0.000
     40 O3         -7.5490   22.6600   31.4700 O.2       1 SUB1        0.000
     41 O4         -5.8010   24.0860   31.9550 O.3       1 SUB1        0.000
     42 C14        -5.9300   24.8150   30.6550 C.3       1 SUB1        0.000
     43 C15        -7.3650   25.3830   30.4960 C.3       1 SUB1        0.000
     44 C16        -5.5730   23.9320   29.4390 C.3       1 SUB1        0.000
     45 C17        -4.9110   25.9710   30.7100 C.3       1 SUB1        0.000
@<TRIPOS>BOND
     1   24    1 1  
     2   27    2 1  
     3   28    3 1  
     4   29    4 1  
     5   31    5 1  
     6   34    6 1  
     7   35    7 1  
     8   36    8 1  
     9   36    9 1  
    10   36   10 1  
    11   37   11 1  
    12   37   12 1  
    13   37   13 1  
    14   38   14 1  
    15   43   15 1  
    16   43   16 1  
    17   43   17 1  
    18   44   18 1  
    19   44   19 1  
    20   44   20 1  
    21   45   21 1  
    22   45   22 1  
    23   45   23 1  
    24   25   24 ar 
    25   24   30 ar 
    26   25   26 1  
    27   27   25 ar 
    28   28   27 ar 
    29   29   28 ar 
    30   30   29 ar 
    31   30   31 1  
    32   31   32 am 
    33   32   33 2  
    34   32   34 1  
    35   34   35 1  
    36   34   38 1  
    37   35   36 1  
    38   35   37 1  
    39   38   39 am 
    40   39   40 2  
    41   39   41 1  
    42   41   42 1  
    43   42   43 1  
    44   42   44 1  
    45   42   45 1  
@<TRIPOS>SUBSTRUCTURE
     1 SUB1        1 GROUP

