### Name: 1l82_ligand
### Creating user name: arthur
### Creation time: Tue Nov 27 11:30:21 2001


@<TRIPOS>MOLECULE
1l82_ligand
   18    17     1     0     0
SMALL
USER_CHARGES


@<TRIPOS>ATOM
      1 H1         33.5481    0.0702   15.6478 H         1 SUB1        0.000
      2 H2         31.5276    0.2416   14.5877 H         1 SUB1        0.000
      3 H3         31.7702   -1.3470   15.3902 H         1 SUB1        0.000
      4 H4         31.7249   -0.6524   12.4528 H         1 SUB1        0.000
      5 H5         31.1645   -2.1382   13.2924 H         1 SUB1        0.000
      6 H6         35.2516   -3.8852    8.1698 H         1 SUB1        0.000
      7 H7         34.3292   -3.7906   10.2651 H         1 SUB1        0.000
      8 H8         33.1057   -3.9932    8.9657 H         1 SUB1        0.000
      9 H9         32.1635   -2.2141   10.1312 H         1 SUB1        0.000
     10 H10        33.1759   -1.3178    8.9487 H         1 SUB1        0.000
     11 OB1        33.4600   -0.3670   14.8090 O.3       1 SUB1        0.000
     12 CB1        32.1250   -0.6820   14.5890 C.3       1 SUB1        0.000
     13 CB         31.9710   -1.3930   13.2280 C.3       1 SUB1        0.000
     14 SG         33.5140   -2.2140   12.8050 S.3       1 SUB1        0.000
     15 OB1        34.8430   -3.0670    8.4270 O.3       1 SUB1        0.000
     16 CB1        33.8650   -3.3180    9.3870 C.3       1 SUB1        0.000
     17 CB         33.1940   -1.9980    9.8130 C.3       1 SUB1        0.000
     18 SG         34.0610   -1.1790   11.1760 S.3       1 SUB1        0.000
@<TRIPOS>BOND
     1   11    1 1  
     2   12    2 1  
     3   12    3 1  
     4   13    4 1  
     5   13    5 1  
     6   15    6 1  
     7   16    7 1  
     8   16    8 1  
     9   17    9 1  
    10   17   10 1  
    11   11   12 1  
    12   12   13 1  
    13   13   14 1  
    14   15   16 1  
    15   16   17 1  
    16   17   18 1  
    17   18   14 1  
@<TRIPOS>SUBSTRUCTURE
     1 SUB1        1 GROUP

