### Name: 1mcf_ligand
### Creating user name: arthur
### Creation time: Tue Nov 27 11:30:29 2001


@<TRIPOS>MOLECULE
1mcf_ligand
   95    97     1     0     0
SMALL
USER_CHARGES


@<TRIPOS>ATOM
      1 H          29.2913  -21.1605   90.4445 H         1 SUB1        0.000
      2 HA         27.4857  -23.4572   90.4200 H         1 SUB1        0.000
      3 HB2        27.0205  -22.8490   88.0378 H         1 SUB1        0.000
      4 HB1        28.0916  -21.4218   88.2439 H         1 SUB1        0.000
      5 HG2        25.4712  -21.2469   88.6509 H         1 SUB1        0.000
      6 HG1        26.6378  -20.3594   89.6891 H         1 SUB1        0.000
      7 HE21       25.4438  -23.7128   89.4875 H         1 SUB1        0.000
      8 HE22       24.9598  -23.8569   91.1443 H         1 SUB1        0.000
      9 H          28.3838  -25.1909   90.4979 H         1 SUB1        0.000
     10 HA         29.0877  -27.1710   89.7810 H         1 SUB1        0.000
     11 HB2        29.9736  -26.7581   87.1947 H         1 SUB1        0.000
     12 HB1        30.5282  -27.7968   88.5511 H         1 SUB1        0.000
     13 HD1        31.4934  -24.9159   89.9090 H         1 SUB1        0.000
     14 HD2        32.1962  -27.2666   86.4058 H         1 SUB1        0.000
     15 HE1        33.6920  -23.8402   89.6344 H         1 SUB1        0.000
     16 HE2        34.4069  -26.2365   86.1339 H         1 SUB1        0.000
     17 HZ         35.1658  -24.5316   87.7601 H         1 SUB1        0.000
     18 H          28.4670  -24.7420   87.2740 H         1 SUB1        0.000
     19 HA         25.6684  -25.5252   87.1101 H         1 SUB1        0.000
     20 HB2        26.2216  -23.6469   85.0374 H         1 SUB1        0.000
     21 HB1        27.1020  -23.1281   86.5146 H         1 SUB1        0.000
     22 HD1        25.0887  -21.1474   86.0983 H         1 SUB1        0.000
     23 HD2        24.0146  -24.8944   87.6939 H         1 SUB1        0.000
     24 HE1        22.7970  -20.8667   87.1953 H         1 SUB1        0.000
     25 HA         25.6705  -28.1015   83.4346 H         1 SUB1        0.000
     26 HB2        25.7392  -30.2414   85.3049 H         1 SUB1        0.000
     27 HB1        24.3889  -29.6889   84.2571 H         1 SUB1        0.000
     28 HG1        23.4519  -29.2193   86.3294 H         1 SUB1        0.000
     29 HG2        25.0484  -28.9383   87.1031 H         1 SUB1        0.000
     30 HD1        23.5939  -27.1656   85.0922 H         1 SUB1        0.000
     31 HD2        24.1673  -26.7394   86.7403 H         1 SUB1        0.000
     32 H1         29.6313  -20.2808   92.3766 H         1 SUB1        0.000
     33 H2         30.0897  -21.5152   93.5983 H         1 SUB1        0.000
     34 H3         28.4613  -20.7589   93.6529 H         1 SUB1        0.000
     35 H4         27.9620  -26.9806   85.3076 H         1 SUB1        0.000
     36 H5         30.1859  -28.1275   85.5102 H         1 SUB1        0.000
     37 H6         30.0072  -26.7092   84.4224 H         1 SUB1        0.000
     38 H7         30.4840  -29.5938   83.7416 H         1 SUB1        0.000
     39 H8         31.4602  -28.1364   83.3548 H         1 SUB1        0.000
     40 H9         28.6418  -27.0080   83.0720 H         1 SUB1        0.000
     41 H10        27.6395  -28.5953   80.7928 H         1 SUB1        0.000
     42 H11        27.9151  -26.8428   80.5108 H         1 SUB1        0.000
     43 H12        26.1282  -27.4342   82.7457 H         1 SUB1        0.000
     44 H13        25.5653  -28.0618   81.1596 H         1 SUB1        0.000
     45 C          28.7330  -22.1950   92.1000 C.2       1 SUB1        0.000
     46 O          28.2520  -23.2620   92.5340 O.2       1 SUB1        0.000
     47 CH3        29.2640  -21.1160   92.9910 C.3       1 SUB1        0.000
     48 N          28.8120  -21.9720   90.7790 N.am      1 SUB1        0.000
     49 CA         28.2200  -22.8790   89.8400 C.3       1 SUB1        0.000
     50 C          29.1430  -23.9150   89.2150 C.2       1 SUB1        0.000
     51 O          30.0530  -23.6670   88.4160 O.2       1 SUB1        0.000
     52 CB         27.4240  -22.1260   88.7620 C.3       1 SUB1        0.000
     53 CG         26.2750  -21.3550   89.3940 C.3       1 SUB1        0.000
     54 CD         25.7160  -22.0510   90.6170 C.2       1 SUB1        0.000
     55 OE1        25.6490  -21.5030   91.7120 O.2       1 SUB1        0.000
     56 NE2        25.3420  -23.3120   90.3980 N.am      1 SUB1        0.000
     57 N          28.8630  -25.1340   89.6220 N.am      1 SUB1        0.000
     58 CA         29.1470  -26.4120   88.9870 C.3       1 SUB1        0.000
     59 C          27.8870  -26.5130   88.0440 C.2       1 SUB1        0.000
     60 O          27.0880  -27.4370   88.1520 O.2       1 SUB1        0.000
     61 CB         30.3190  -26.7630   88.2390 C.3       1 SUB1        0.000
     62 CG         31.6530  -26.1420   88.1690 C.ar      1 SUB1        0.000
     63 CD1        32.1200  -25.1960   89.0700 C.ar      1 SUB1        0.000
     64 CD2        32.5210  -26.5120   87.1130 C.ar      1 SUB1        0.000
     65 CE1        33.3640  -24.5970   88.9310 C.ar      1 SUB1        0.000
     66 CE2        33.7660  -25.9420   86.9570 C.ar      1 SUB1        0.000
     67 CZ         34.1870  -24.9840   87.8710 C.ar      1 SUB1        0.000
     68 N          27.7360  -25.4240   87.2950 N.am      1 SUB1        0.000
     69 CA         26.5200  -25.1970   86.4960 C.3       1 SUB1        0.000
     70 C          26.5440  -26.0600   85.2390 C.2       1 SUB1        0.000
     71 O          27.2410  -25.8000   84.2650 O.2       1 SUB1        0.000
     72 CB         26.2670  -23.7340   86.1330 C.3       1 SUB1        0.000
     73 CG         24.9830  -23.2010   86.7110 C.2       1 SUB1        0.000
     74 ND1        24.5690  -21.9000   86.5720 N.pl3     1 SUB1        0.000
     75 CD2        24.0130  -23.8450   87.4030 C.2       1 SUB1        0.000
     76 CE1        23.3870  -21.7810   87.1520 C.2       1 SUB1        0.000
     77 NE2        23.0350  -22.9340   87.6670 N.2       1 SUB1        0.000
     78 N          25.6990  -27.1320   85.3300 N.am      1 SUB1        0.000
     79 CA         25.9810  -28.3200   84.4670 C.3       1 SUB1        0.000
     80 C          27.4590  -28.6780   84.4340 C.2       1 SUB1        0.000
     81 O          27.8480  -29.7990   84.0190 O.2       1 SUB1        0.000
     82 CB         25.1310  -29.3750   85.0060 C.3       1 SUB1        0.000
     83 CG         24.4530  -28.7850   86.1910 C.3       1 SUB1        0.000
     84 CD         24.3660  -27.3570   85.8520 C.3       1 SUB1        0.000
     85 N          28.3290  -27.7640   84.8060 N.am      1 SUB1        0.000
     86 CB         29.7350  -27.7640   84.5750 C.3       1 SUB1        0.000
     87 CA         30.4390  -28.5320   83.4580 C.3       1 SUB1        0.000
     88 C          29.7350  -28.4230   82.0920 C.2       1 SUB1        0.000
     89 O          30.0710  -28.9660   81.0520 O.2       1 SUB1        0.000
     90 N          28.6950  -27.6030   82.2700 N.am      1 SUB1        0.000
     91 CB         27.6350  -27.5990   81.2590 C.3       1 SUB1        0.000
     92 CA         26.1960  -27.3090   81.6550 C.3       1 SUB1        0.000
     93 C          25.6090  -25.9410   81.3220 C.2       1 SUB1        0.000
     94 O          24.8300  -25.7940   80.3550 O.co2     1 SUB1       -0.500
     95 OXT        25.5990  -25.1110   82.2590 O.co2     1 SUB1       -0.500
@<TRIPOS>BOND
     1   48    1 1  
     2   49    2 1  
     3   52    3 1  
     4   52    4 1  
     5   53    5 1  
     6   53    6 1  
     7   56    7 1  
     8   56    8 1  
     9   57    9 1  
    10   58   10 1  
    11   61   11 1  
    12   61   12 1  
    13   63   13 1  
    14   64   14 1  
    15   65   15 1  
    16   66   16 1  
    17   67   17 1  
    18   68   18 1  
    19   69   19 1  
    20   72   20 1  
    21   72   21 1  
    22   74   22 1  
    23   75   23 1  
    24   76   24 1  
    25   79   25 1  
    26   82   26 1  
    27   82   27 1  
    28   83   28 1  
    29   83   29 1  
    30   84   30 1  
    31   84   31 1  
    32   47   32 1  
    33   47   33 1  
    34   47   34 1  
    35   85   35 1  
    36   86   36 1  
    37   86   37 1  
    38   87   38 1  
    39   87   39 1  
    40   90   40 1  
    41   91   41 1  
    42   91   42 1  
    43   92   43 1  
    44   92   44 1  
    45   46   45 2  
    46   45   47 1  
    47   49   48 1  
    48   49   52 1  
    49   49   50 1  
    50   50   51 2  
    51   52   53 1  
    52   53   54 1  
    53   54   56 am 
    54   54   55 2  
    55   45   48 am 
    56   58   57 1  
    57   58   61 1  
    58   58   59 1  
    59   59   60 2  
    60   61   62 1  
    61   62   63 ar 
    62   62   64 ar 
    63   64   66 ar 
    64   66   67 ar 
    65   67   65 ar 
    66   65   63 ar 
    67   50   57 am 
    68   69   68 1  
    69   69   72 1  
    70   69   70 1  
    71   70   71 2  
    72   72   73 1  
    73   73   74 1  
    74   73   75 2  
    75   75   77 1  
    76   77   76 2  
    77   76   74 1  
    78   59   68 am 
    79   79   80 1  
    80   79   82 1  
    81   79   78 1  
    82   78   84 1  
    83   84   83 1  
    84   83   82 1  
    85   80   81 2  
    86   70   78 am 
    87   80   85 am 
    88   85   86 1  
    89   86   87 1  
    90   87   88 1  
    91   88   89 2  
    92   88   90 am 
    93   90   91 1  
    94   91   92 1  
    95   92   93 1  
    96   93   94 ar 
    97   93   95 ar 
@<TRIPOS>SUBSTRUCTURE
     1 SUB1        1 GROUP

