### Name: 1mch_ligand
### Creating user name: arthur
### Creation time: Tue Nov 27 11:30:29 2001


@<TRIPOS>MOLECULE
1mch_ligand
   95    97     1     0     0
SMALL
USER_CHARGES


@<TRIPOS>ATOM
      1 H          29.8157  -20.1300   93.7213 H         1 SUB1        0.000
      2 HA         30.2064  -22.5054   92.1341 H         1 SUB1        0.000
      3 HB2        27.7393  -22.3623   93.7131 H         1 SUB1        0.000
      4 HB1        29.3266  -22.5125   94.5404 H         1 SUB1        0.000
      5 HG2        27.7084  -24.5192   93.6573 H         1 SUB1        0.000
      6 HG1        29.4304  -24.6322   94.1555 H         1 SUB1        0.000
      7 HE21       31.0660  -24.6116   92.4611 H         1 SUB1        0.000
      8 HE22       30.6622  -25.3511   90.9479 H         1 SUB1        0.000
      9 H          29.8718  -22.2593   90.3077 H         1 SUB1        0.000
     10 HA         28.3563  -23.8685   89.4597 H         1 SUB1        0.000
     11 HB2        30.0184  -21.6461   88.3010 H         1 SUB1        0.000
     12 HB1        29.2564  -22.7870   87.1416 H         1 SUB1        0.000
     13 HD1        29.4380  -25.3678   88.2230 H         1 SUB1        0.000
     14 HD2        32.2206  -22.1552   88.6575 H         1 SUB1        0.000
     15 HE1        31.2678  -26.9939   88.4508 H         1 SUB1        0.000
     16 HE2        34.0748  -23.7672   88.8698 H         1 SUB1        0.000
     17 HZ         33.6001  -26.2117   88.7469 H         1 SUB1        0.000
     18 H          27.7524  -24.6297   87.7345 H         1 SUB1        0.000
     19 HA         25.0367  -24.4027   87.2945 H         1 SUB1        0.000
     20 HB2        26.3968  -24.1921   84.5614 H         1 SUB1        0.000
     21 HB1        26.0245  -22.6708   85.4408 H         1 SUB1        0.000
     22 HD2        23.3203  -22.1736   85.9122 H         1 SUB1        0.000
     23 HE1        21.7463  -25.5829   83.9247 H         1 SUB1        0.000
     24 HA         25.5845  -28.1683   85.1928 H         1 SUB1        0.000
     25 HB2        23.6792  -29.5555   86.8796 H         1 SUB1        0.000
     26 HB1        23.5223  -28.9578   85.1929 H         1 SUB1        0.000
     27 HG1        22.7728  -26.8664   85.8678 H         1 SUB1        0.000
     28 HG2        22.1616  -27.8416   87.2468 H         1 SUB1        0.000
     29 HD1        23.7125  -25.8284   87.8256 H         1 SUB1        0.000
     30 HD2        24.1560  -27.4188   88.5332 H         1 SUB1        0.000
     31 H1         31.6055  -18.8106   93.7035 H         1 SUB1        0.000
     32 H2         32.0246  -18.3191   92.0274 H         1 SUB1        0.000
     33 H3         33.0622  -19.4939   92.9048 H         1 SUB1        0.000
     34 H4         21.1660  -23.3945   85.0865 H         1 SUB1        0.000
     35 H5         26.4684  -29.8623   84.9046 H         1 SUB1        0.000
     36 H6         27.6108  -31.6258   86.9518 H         1 SUB1        0.000
     37 H7         28.7880  -30.4880   86.2129 H         1 SUB1        0.000
     38 H8         27.0740  -32.5900   84.6714 H         1 SUB1        0.000
     39 H9         28.8438  -32.6855   84.9635 H         1 SUB1        0.000
     40 H10        28.6220  -29.6953   84.8914 H         1 SUB1        0.000
     41 H11        29.0381  -29.0050   82.1233 H         1 SUB1        0.000
     42 H12        28.7729  -27.8642   83.4853 H         1 SUB1        0.000
     43 H13        26.3849  -29.3252   82.4523 H         1 SUB1        0.000
     44 H14        27.1319  -28.1123   81.3579 H         1 SUB1        0.000
     45 C          31.2020  -20.2840   92.2080 C.2       1 SUB1        0.000
     46 O          31.5070  -20.8250   91.1230 O.2       1 SUB1        0.000
     47 CH3        32.0290  -19.1510   92.7470 C.3       1 SUB1        0.000
     48 N          30.1180  -20.6660   92.9330 N.am      1 SUB1        0.000
     49 CA         29.4140  -21.8600   92.5410 C.3       1 SUB1        0.000
     50 C          28.4510  -21.6140   91.3550 C.2       1 SUB1        0.000
     51 O          27.4290  -20.9410   91.2940 O.2       1 SUB1        0.000
     52 CB         28.7790  -22.7050   93.6060 C.3       1 SUB1        0.000
     53 CG         28.7350  -24.2050   93.4180 C.3       1 SUB1        0.000
     54 CD         29.0730  -24.8290   92.1080 C.2       1 SUB1        0.000
     55 OE1        28.2210  -25.2630   91.3100 O.2       1 SUB1        0.000
     56 NE2        30.3780  -24.9400   91.8140 N.am      1 SUB1        0.000
     57 N          28.8730  -22.2130   90.2950 N.am      1 SUB1        0.000
     58 CA         28.3870  -22.8180   89.1350 C.3       1 SUB1        0.000
     59 C          27.1890  -22.7960   88.2560 C.2       1 SUB1        0.000
     60 O          26.4020  -21.8730   88.0570 O.2       1 SUB1        0.000
     61 CB         29.6080  -22.6590   88.1760 C.3       1 SUB1        0.000
     62 CG         30.7040  -23.6480   88.4290 C.ar      1 SUB1        0.000
     63 CD1        30.4530  -25.0160   88.3680 C.ar      1 SUB1        0.000
     64 CD2        32.0130  -23.2180   88.6090 C.ar      1 SUB1        0.000
     65 CE1        31.4820  -25.9320   88.4900 C.ar      1 SUB1        0.000
     66 CE2        33.0600  -24.1210   88.7280 C.ar      1 SUB1        0.000
     67 CZ         32.7920  -25.4940   88.6630 C.ar      1 SUB1        0.000
     68 N          27.0060  -23.9800   87.5900 N.am      1 SUB1        0.000
     69 CA         25.9780  -24.4890   86.7320 C.3       1 SUB1        0.000
     70 C          26.2050  -25.9840   86.3910 C.2       1 SUB1        0.000
     71 O          27.2780  -26.3110   85.8800 O.2       1 SUB1        0.000
     72 CB         25.7690  -23.7360   85.3410 C.3       1 SUB1        0.000
     73 CG         24.2980  -23.8960   84.9950 C.2       1 SUB1        0.000
     74 ND1        23.7590  -24.9980   84.3760 N.2       1 SUB1        0.000
     75 CD2        23.2610  -23.1190   85.3750 C.2       1 SUB1        0.000
     76 CE1        22.4470  -24.8720   84.3600 C.2       1 SUB1        0.000
     77 NE2        22.1250  -23.7470   84.9560 N.pl3     1 SUB1        0.000
     78 N          25.2330  -26.8890   86.7690 N.am      1 SUB1        0.000
     79 CA         25.2460  -28.2640   86.2350 C.3       1 SUB1        0.000
     80 C          26.1210  -29.3620   86.8190 C.2       1 SUB1        0.000
     81 O          26.1700  -29.7010   88.0090 O.2       1 SUB1        0.000
     82 CB         23.8300  -28.6920   86.2150 C.3       1 SUB1        0.000
     83 CG         23.0620  -27.5250   86.7000 C.3       1 SUB1        0.000
     84 CD         24.0210  -26.8590   87.5960 C.3       1 SUB1        0.000
     85 N          26.7530  -30.0380   85.8470 N.am      1 SUB1        0.000
     86 CB         27.8410  -31.0260   86.0590 C.3       1 SUB1        0.000
     87 CA         27.9960  -32.0040   84.8000 C.3       1 SUB1        0.000
     88 C          28.2520  -31.1480   83.5290 C.2       1 SUB1        0.000
     89 O          28.3260  -31.5760   82.3830 O.2       1 SUB1        0.000
     90 N          28.4400  -29.8820   83.9260 N.am      1 SUB1        0.000
     91 CB         28.3850  -28.7570   82.9730 C.3       1 SUB1        0.000
     92 CA         26.9890  -28.4070   82.4080 C.3       1 SUB1        0.000
     93 C          26.1630  -27.2910   83.0810 C.2       1 SUB1        0.000
     94 O          24.9310  -27.5580   83.3410 O.co2     1 SUB1       -0.500
     95 OXT        26.3980  -26.0290   83.0510 O.co2     1 SUB1       -0.500
@<TRIPOS>BOND
     1   48    1 1  
     2   49    2 1  
     3   52    3 1  
     4   52    4 1  
     5   53    5 1  
     6   53    6 1  
     7   56    7 1  
     8   56    8 1  
     9   57    9 1  
    10   58   10 1  
    11   61   11 1  
    12   61   12 1  
    13   63   13 1  
    14   64   14 1  
    15   65   15 1  
    16   66   16 1  
    17   67   17 1  
    18   68   18 1  
    19   69   19 1  
    20   72   20 1  
    21   72   21 1  
    22   75   22 1  
    23   76   23 1  
    24   79   24 1  
    25   82   25 1  
    26   82   26 1  
    27   83   27 1  
    28   83   28 1  
    29   84   29 1  
    30   84   30 1  
    31   47   31 1  
    32   47   32 1  
    33   47   33 1  
    34   77   34 1  
    35   85   35 1  
    36   86   36 1  
    37   86   37 1  
    38   87   38 1  
    39   87   39 1  
    40   90   40 1  
    41   91   41 1  
    42   91   42 1  
    43   92   43 1  
    44   92   44 1  
    45   46   45 2  
    46   45   47 1  
    47   49   48 1  
    48   49   52 1  
    49   49   50 1  
    50   50   51 2  
    51   52   53 1  
    52   53   54 1  
    53   54   56 am 
    54   54   55 2  
    55   45   48 am 
    56   58   57 1  
    57   58   61 1  
    58   58   59 1  
    59   59   60 2  
    60   61   62 1  
    61   62   63 ar 
    62   62   64 ar 
    63   64   66 ar 
    64   66   67 ar 
    65   67   65 ar 
    66   65   63 ar 
    67   50   57 am 
    68   69   68 1  
    69   69   72 1  
    70   69   70 1  
    71   70   71 2  
    72   72   73 1  
    73   73   74 1  
    74   73   75 2  
    75   75   77 1  
    76   77   76 1  
    77   76   74 2  
    78   59   68 am 
    79   79   80 1  
    80   79   82 1  
    81   79   78 1  
    82   78   84 1  
    83   84   83 1  
    84   83   82 1  
    85   80   81 2  
    86   70   78 am 
    87   80   85 am 
    88   85   86 1  
    89   86   87 1  
    90   87   88 1  
    91   88   89 2  
    92   88   90 am 
    93   90   91 1  
    94   91   92 1  
    95   92   93 1  
    96   93   94 ar 
    97   93   95 ar 
@<TRIPOS>SUBSTRUCTURE
     1 SUB1        1 GROUP

