### Name: 1mcs_ligand
### Creating user name: arthur
### Creation time: Tue Nov 27 11:30:29 2001


@<TRIPOS>MOLECULE
1mcs_ligand
   75    77     1     0     0
SMALL
USER_CHARGES


@<TRIPOS>ATOM
      1 H          30.0830  -24.9232   89.0064 H         1 SUB1        0.000
      2 HA         29.0588  -22.5216   90.3271 H         1 SUB1        0.000
      3 HB2        27.2071  -22.5135   88.4233 H         1 SUB1        0.000
      4 HB1        28.5761  -23.0808   87.4082 H         1 SUB1        0.000
      5 HG2        29.8322  -21.0431   88.0709 H         1 SUB1        0.000
      6 HG1        28.3609  -20.4692   88.9267 H         1 SUB1        0.000
      7 HE21       30.0269  -19.6626   86.4893 H         1 SUB1        0.000
      8 HE22       28.8551  -19.3519   85.2522 H         1 SUB1        0.000
      9 H          28.2816  -25.0850   88.0883 H         1 SUB1        0.000
     10 HA         26.2669  -26.3651   89.8349 H         1 SUB1        0.000
     11 HB2        27.5636  -28.4968   89.7613 H         1 SUB1        0.000
     12 HB1        28.0652  -27.2261   90.9276 H         1 SUB1        0.000
     13 HD1        28.9381  -28.6311   87.5724 H         1 SUB1        0.000
     14 HD2        30.2396  -26.6453   91.1217 H         1 SUB1        0.000
     15 HE1        31.2882  -28.9221   86.8617 H         1 SUB1        0.000
     16 HE2        32.5888  -26.9452   90.4511 H         1 SUB1        0.000
     17 HZ         33.1209  -28.0415   88.3011 H         1 SUB1        0.000
     18 H          27.1277  -25.3424   87.0911 H         1 SUB1        0.000
     19 HA         24.7902  -26.5707   86.0591 H         1 SUB1        0.000
     20 HB2        25.0162  -24.8278   84.2613 H         1 SUB1        0.000
     21 HB1        26.6125  -24.3818   84.9536 H         1 SUB1        0.000
     22 HD2        23.1843  -25.2298   86.7785 H         1 SUB1        0.000
     23 HE1        24.5605  -21.5085   88.2808 H         1 SUB1        0.000
     24 HA         26.0410  -29.8842   84.1321 H         1 SUB1        0.000
     25 HB2        23.3012  -29.7414   83.0080 H         1 SUB1        0.000
     26 HB1        24.6749  -30.8264   82.6053 H         1 SUB1        0.000
     27 HG1        25.8795  -29.0602   81.4997 H         1 SUB1        0.000
     28 HG2        24.1809  -28.7981   80.9775 H         1 SUB1        0.000
     29 HD1        25.5807  -26.8698   82.1332 H         1 SUB1        0.000
     30 HD2        23.8357  -27.1070   82.4870 H         1 SUB1        0.000
     31 H1         32.1803  -25.2538   88.8830 H         1 SUB1        0.000
     32 H2         33.1836  -24.0833   89.8048 H         1 SUB1        0.000
     33 H3         33.0121  -23.9128   88.0248 H         1 SUB1        0.000
     34 H4         22.7428  -23.2832   88.4621 H         1 SUB1        0.000
     35 C          31.2990  -23.3320   89.1520 C.2       1 SUB1        0.000
     36 O          31.3850  -22.0970   89.2620 O.2       1 SUB1        0.000
     37 CH3        32.4980  -24.2030   88.9530 C.3       1 SUB1        0.000
     38 N          30.1240  -23.9420   89.1950 N.am      1 SUB1        0.000
     39 CA         28.8900  -23.2350   89.5070 C.3       1 SUB1        0.000
     40 C          27.8800  -24.3370   89.9160 C.2       1 SUB1        0.000
     41 O          27.1950  -24.3150   90.9370 O.2       1 SUB1        0.000
     42 CB         28.3010  -22.5110   88.3080 C.3       1 SUB1        0.000
     43 CG         28.7330  -21.0800   88.0910 C.3       1 SUB1        0.000
     44 CD         28.2040  -20.5010   86.7930 C.2       1 SUB1        0.000
     45 OE1        27.0540  -20.6980   86.3880 O.2       1 SUB1        0.000
     46 NE2        29.1040  -19.7780   86.1220 N.am      1 SUB1        0.000
     47 N          27.8390  -25.2590   88.9680 N.am      1 SUB1        0.000
     48 CA         27.1450  -26.5440   89.1970 C.3       1 SUB1        0.000
     49 C          26.6830  -27.1180   87.8580 C.2       1 SUB1        0.000
     50 O          26.4920  -28.3130   87.6670 O.2       1 SUB1        0.000
     51 CB         28.0260  -27.5040   89.8640 C.3       1 SUB1        0.000
     52 CG         29.4380  -27.6210   89.3840 C.ar      1 SUB1        0.000
     53 CD1        29.7400  -28.2560   88.1980 C.ar      1 SUB1        0.000
     54 CD2        30.4730  -27.1460   90.1890 C.ar      1 SUB1        0.000
     55 CE1        31.0580  -28.4210   87.7950 C.ar      1 SUB1        0.000
     56 CE2        31.7910  -27.3060   89.8120 C.ar      1 SUB1        0.000
     57 CZ         32.0880  -27.9310   88.6110 C.ar      1 SUB1        0.000
     58 N          26.6000  -26.1790   86.9440 N.am      1 SUB1        0.000
     59 CA         25.7930  -26.2650   85.7260 C.3       1 SUB1        0.000
     60 C          26.1710  -27.3110   84.7410 C.2       1 SUB1        0.000
     61 O          27.3330  -27.5790   84.3860 O.2       1 SUB1        0.000
     62 CB         25.6270  -24.8170   85.1760 C.3       1 SUB1        0.000
     63 CG         24.9300  -24.0070   86.2610 C.2       1 SUB1        0.000
     64 ND1        25.3570  -22.8290   86.7840 N.2       1 SUB1        0.000
     65 CD2        23.7870  -24.3350   86.9270 C.2       1 SUB1        0.000
     66 CE1        24.4930  -22.4310   87.7060 C.2       1 SUB1        0.000
     67 NE2        23.5420  -23.3300   87.8140 N.pl3     1 SUB1        0.000
     68 N          25.1510  -27.8360   83.9260 N.am      1 SUB1        0.000
     69 CA         25.0650  -29.3830   84.0530 C.3       1 SUB1        0.000
     70 C          24.2770  -29.4610   85.3880 C.2       1 SUB1        0.000
     71 O          24.5130  -30.2090   86.2950 O.co2     1 SUB1       -0.500
     72 CB         24.3920  -29.7990   82.8780 C.3       1 SUB1        0.000
     73 CG         24.8620  -28.8190   81.8410 C.3       1 SUB1        0.000
     74 CD         24.8360  -27.5590   82.5580 C.3       1 SUB1        0.000
     75 OXT        23.4380  -28.5560   85.5460 O.co2     1 SUB1       -0.500
@<TRIPOS>BOND
     1   38    1 1  
     2   39    2 1  
     3   42    3 1  
     4   42    4 1  
     5   43    5 1  
     6   43    6 1  
     7   46    7 1  
     8   46    8 1  
     9   47    9 1  
    10   48   10 1  
    11   51   11 1  
    12   51   12 1  
    13   53   13 1  
    14   54   14 1  
    15   55   15 1  
    16   56   16 1  
    17   57   17 1  
    18   58   18 1  
    19   59   19 1  
    20   62   20 1  
    21   62   21 1  
    22   65   22 1  
    23   66   23 1  
    24   69   24 1  
    25   72   25 1  
    26   72   26 1  
    27   73   27 1  
    28   73   28 1  
    29   74   29 1  
    30   74   30 1  
    31   37   31 1  
    32   37   32 1  
    33   37   33 1  
    34   67   34 1  
    35   36   35 2  
    36   35   37 1  
    37   39   38 1  
    38   39   42 1  
    39   39   40 1  
    40   40   41 2  
    41   42   43 1  
    42   43   44 1  
    43   44   46 am 
    44   44   45 2  
    45   35   38 am 
    46   48   47 1  
    47   48   51 1  
    48   48   49 1  
    49   49   50 2  
    50   51   52 1  
    51   52   53 ar 
    52   52   54 ar 
    53   54   56 ar 
    54   56   57 ar 
    55   57   55 ar 
    56   55   53 ar 
    57   40   47 am 
    58   59   58 1  
    59   59   62 1  
    60   59   60 1  
    61   60   61 2  
    62   62   63 1  
    63   63   64 1  
    64   63   65 2  
    65   65   67 1  
    66   67   66 1  
    67   66   64 2  
    68   49   58 am 
    69   69   70 1  
    70   69   72 1  
    71   69   68 1  
    72   68   74 1  
    73   74   73 1  
    74   73   72 1  
    75   70   75 ar 
    76   70   71 ar 
    77   60   68 am 
@<TRIPOS>SUBSTRUCTURE
     1 SUB1        1 GROUP

