### Name: 1mfc_ligand
### Creating user name: arthur
### Creation time: Tue Nov 27 11:30:21 2001


@<TRIPOS>MOLECULE
1mfc_ligand
   84    87     1     0     0
SMALL
USER_CHARGES


@<TRIPOS>ATOM
      1 H1         22.4245   39.1163   22.4692 H         1 SUB1        0.000
      2 H2         22.6207   40.0070   24.7248 H         1 SUB1        0.000
      3 H3         21.0898   42.4731   23.7054 H         1 SUB1        0.000
      4 H4         23.1615   43.7212   24.1247 H         1 SUB1        0.000
      5 H5         23.0024   42.8058   21.8854 H         1 SUB1        0.000
      6 H6         25.4684   42.0577   21.3485 H         1 SUB1        0.000
      7 H7         25.7883   42.4240   23.0777 H         1 SUB1        0.000
      8 H8         20.6096   39.0488   24.1007 H         1 SUB1        0.000
      9 H9         20.6513   41.7530   25.8644 H         1 SUB1        0.000
     10 H10        23.8553   42.3997   25.8759 H         1 SUB1        0.000
     11 H11        26.1437   44.2345   21.6953 H         1 SUB1        0.000
     12 H12        23.0948   41.2349   20.0013 H         1 SUB1        0.000
     13 H13        21.6212   39.2296   20.3210 H         1 SUB1        0.000
     14 H14        19.7661   39.8689   18.8779 H         1 SUB1        0.000
     15 H15        19.2520   42.1294   20.8746 H         1 SUB1        0.000
     16 H16        20.1050   42.3760   17.9414 H         1 SUB1        0.000
     17 H17        20.6960   44.7570   18.7957 H         1 SUB1        0.000
     18 H18        19.7403   44.3546   20.2624 H         1 SUB1        0.000
     19 H19        17.3816   41.2642   19.8139 H         1 SUB1        0.000
     20 H20        18.4768   45.4099   18.6286 H         1 SUB1        0.000
     21 H21        17.5173   39.1905   19.4229 H         1 SUB1        0.000
     22 H22        16.2057   37.9674   21.0859 H         1 SUB1        0.000
     23 H23        17.0335   37.2640   23.2484 H         1 SUB1        0.000
     24 H24        18.5841   38.1401   23.0146 H         1 SUB1        0.000
     25 H25        18.9397   35.7590   22.6390 H         1 SUB1        0.000
     26 H26        20.1694   37.3786   21.2133 H         1 SUB1        0.000
     27 H27        20.7788   35.8750   19.3555 H         1 SUB1        0.000
     28 H28        19.3173   34.8804   19.6737 H         1 SUB1        0.000
     29 H29        20.6266   34.9710   20.9002 H         1 SUB1        0.000
     30 H30        16.4363   40.2691   21.3598 H         1 SUB1        0.000
     31 H31        16.7932   35.2272   22.0012 H         1 SUB1        0.000
     32 H32        25.9662   42.3687   14.9562 H         1 SUB1        0.000
     33 H33        26.4924   42.4049   17.4693 H         1 SUB1        0.000
     34 H34        24.3173   42.4174   18.5242 H         1 SUB1        0.000
     35 H35        23.7526   39.7945   17.0171 H         1 SUB1        0.000
     36 H36        22.7148   42.6255   16.5596 H         1 SUB1        0.000
     37 H37        21.4585   41.8305   14.6029 H         1 SUB1        0.000
     38 H38        20.8182   41.1142   16.1207 H         1 SUB1        0.000
     39 H39        21.8486   40.1293   15.0275 H         1 SUB1        0.000
     40 H40        24.4791   44.1338   15.1562 H         1 SUB1        0.000
     41 H41        27.0276   40.6448   16.0495 H         1 SUB1        0.000
     42 H42        25.9296   41.0541   19.5055 H         1 SUB1        0.000
     43 C1         22.3180   40.2020   22.6100 C.3       1 SUB1        0.000
     44 C2         21.9030   40.4880   24.0440 C.3       1 SUB1        0.000
     45 C3         21.8510   41.9930   24.3380 C.3       1 SUB1        0.000
     46 C4         23.2370   42.6270   24.0410 C.3       1 SUB1        0.000
     47 C5         23.6750   42.2670   22.5690 C.3       1 SUB1        0.000
     48 C6         25.1410   42.6480   22.2170 C.3       1 SUB1        0.000
     49 O2         20.6180   39.9830   24.2730 O.3       1 SUB1        0.000
     50 O3         21.5010   42.1480   25.7080 O.3       1 SUB1        0.000
     51 O4         24.1590   42.1610   25.0080 O.3       1 SUB1        0.000
     52 O5         23.5630   40.8280   22.3160 O.3       1 SUB1        0.000
     53 O6         25.2420   44.0230   21.9070 O.3       1 SUB1        0.000
     54 C1         22.1040   41.1500   19.5310 C.3       1 SUB1        0.000
     55 C2         21.2470   40.2620   20.3850 C.3       1 SUB1        0.000
     56 C3         19.8220   40.3100   19.8840 C.3       1 SUB1        0.000
     57 C4         19.2800   41.7460   19.8440 C.3       1 SUB1        0.000
     58 C5         20.2130   42.6470   19.0020 C.3       1 SUB1        0.000
     59 C6         19.8700   44.1470   19.1900 C.3       1 SUB1        0.000
     60 O2         21.2870   40.6920   21.7520 O.3       1 SUB1        0.000
     61 O3         19.0410   39.5620   20.7960 O.3       1 SUB1        0.000
     62 O4         17.9630   41.8150   19.3030 O.3       1 SUB1        0.000
     63 O5         21.5700   42.4760   19.4050 O.3       1 SUB1        0.000
     64 O6         18.6660   44.4880   18.4990 O.3       1 SUB1        0.000
     65 C1         18.0600   38.7010   20.2450 C.3       1 SUB1        0.000
     66 C2         17.1310   38.4490   21.4350 C.3       1 SUB1        0.000
     67 C3         17.7910   37.5680   22.5110 C.3       1 SUB1        0.000
     68 C4         18.3980   36.3210   21.8640 C.3       1 SUB1        0.000
     69 C5         19.3970   36.7350   20.7670 C.3       1 SUB1        0.000
     70 C6         20.0770   35.5320   20.1300 C.3       1 SUB1        0.000
     71 O2         16.8450   39.7100   22.0100 O.3       1 SUB1        0.000
     72 O4         17.4050   35.4780   21.3190 O.3       1 SUB1        0.000
     73 O5         18.6740   37.4830   19.7540 O.3       1 SUB1        0.000
     74 C1         25.1820   42.3980   15.7270 C.3       1 SUB1        0.000
     75 C2         25.7400   41.7340   17.0290 C.3       1 SUB1        0.000
     76 C3         24.6410   41.4650   18.0790 C.3       1 SUB1        0.000
     77 C4         23.4020   40.7670   17.3930 C.3       1 SUB1        0.000
     78 C5         22.9290   41.6140   16.1840 C.3       1 SUB1        0.000
     79 C6         21.6740   41.1380   15.4300 C.3       1 SUB1        0.000
     80 O1         24.8140   43.7540   15.9600 O.3       1 SUB1        0.000
     81 O2         26.3470   40.4990   16.6960 O.3       1 SUB1        0.000
     82 O3         25.1860   40.6220   19.1020 O.3       1 SUB1        0.000
     83 O4         22.2570   40.5030   18.2540 O.3       1 SUB1        0.000
     84 O5         24.0240   41.6820   15.2470 O.3       1 SUB1        0.000
@<TRIPOS>BOND
     1   43    1 1  
     2   44    2 1  
     3   45    3 1  
     4   46    4 1  
     5   47    5 1  
     6   48    6 1  
     7   48    7 1  
     8   49    8 1  
     9   50    9 1  
    10   51   10 1  
    11   53   11 1  
    12   54   12 1  
    13   55   13 1  
    14   56   14 1  
    15   57   15 1  
    16   58   16 1  
    17   59   17 1  
    18   59   18 1  
    19   62   19 1  
    20   64   20 1  
    21   65   21 1  
    22   66   22 1  
    23   67   23 1  
    24   67   24 1  
    25   68   25 1  
    26   69   26 1  
    27   70   27 1  
    28   70   28 1  
    29   70   29 1  
    30   71   30 1  
    31   72   31 1  
    32   74   32 1  
    33   75   33 1  
    34   76   34 1  
    35   77   35 1  
    36   78   36 1  
    37   79   37 1  
    38   79   38 1  
    39   79   39 1  
    40   80   40 1  
    41   81   41 1  
    42   82   42 1  
    43   43   44 1  
    44   43   52 1  
    45   44   45 1  
    46   44   49 1  
    47   45   46 1  
    48   45   50 1  
    49   46   47 1  
    50   46   51 1  
    51   47   48 1  
    52   47   52 1  
    53   48   53 1  
    54   54   55 1  
    55   54   63 1  
    56   55   56 1  
    57   55   60 1  
    58   56   57 1  
    59   56   61 1  
    60   57   58 1  
    61   57   62 1  
    62   58   59 1  
    63   58   63 1  
    64   59   64 1  
    65   60   43 1  
    66   61   65 1  
    67   65   66 1  
    68   65   73 1  
    69   66   67 1  
    70   66   71 1  
    71   67   68 1  
    72   68   69 1  
    73   68   72 1  
    74   69   70 1  
    75   69   73 1  
    76   74   75 1  
    77   74   80 1  
    78   74   84 1  
    79   75   76 1  
    80   75   81 1  
    81   76   77 1  
    82   76   82 1  
    83   77   78 1  
    84   77   83 1  
    85   78   79 1  
    86   78   84 1  
    87   83   54 1  
@<TRIPOS>SUBSTRUCTURE
     1 SUB1        1 GROUP

