### Name: 1mfe_ligand
### Creating user name: arthur
### Creation time: Tue Nov 27 11:30:21 2001


@<TRIPOS>MOLECULE
1mfe_ligand
   64    66     1     0     0
SMALL
USER_CHARGES


@<TRIPOS>ATOM
      1 H1         20.3933   39.2044   22.7339 H         1 SUB1        0.000
      2 H2         19.4096   40.0531   24.7479 H         1 SUB1        0.000
      3 H3         20.2653   42.9178   24.0798 H         1 SUB1        0.000
      4 H4         22.1431   42.6529   25.7231 H         1 SUB1        0.000
      5 H5         22.4083   42.0964   23.2487 H         1 SUB1        0.000
      6 H6         24.5445   40.9517   23.1835 H         1 SUB1        0.000
      7 H7         24.3883   40.5188   24.9199 H         1 SUB1        0.000
      8 H8         18.0854   40.4852   22.8665 H         1 SUB1        0.000
      9 H9         18.5123   42.5386   25.5749 H         1 SUB1        0.000
     10 H10        21.1771   40.8780   26.9055 H         1 SUB1        0.000
     11 H11        25.6639   42.4194   24.5792 H         1 SUB1        0.000
     12 H12        23.0183   41.7238   20.7497 H         1 SUB1        0.000
     13 H13        21.6779   39.5231   20.7318 H         1 SUB1        0.000
     14 H14        20.0085   39.9131   18.9932 H         1 SUB1        0.000
     15 H15        19.2237   42.4156   20.5901 H         1 SUB1        0.000
     16 H16        20.5704   42.0387   17.8644 H         1 SUB1        0.000
     17 H17        19.5846   44.0434   17.3814 H         1 SUB1        0.000
     18 H18        20.8915   44.6967   18.4264 H         1 SUB1        0.000
     19 H19        23.5261   41.4061   18.5277 H         1 SUB1        0.000
     20 H20        17.4754   41.3897   19.5308 H         1 SUB1        0.000
     21 H21        18.8137   45.5308   18.9596 H         1 SUB1        0.000
     22 H22        17.5757   39.5016   19.3231 H         1 SUB1        0.000
     23 H23        16.1465   38.0873   20.6618 H         1 SUB1        0.000
     24 H24        16.6580   37.3815   22.9140 H         1 SUB1        0.000
     25 H25        18.2085   38.2885   22.8998 H         1 SUB1        0.000
     26 H26        18.7732   36.0126   22.6101 H         1 SUB1        0.000
     27 H27        20.0813   37.4707   21.1960 H         1 SUB1        0.000
     28 H28        20.6038   36.0853   19.1951 H         1 SUB1        0.000
     29 H29        19.0779   35.1684   19.4349 H         1 SUB1        0.000
     30 H30        20.3880   35.0680   20.6597 H         1 SUB1        0.000
     31 H31        16.0980   40.3643   21.1346 H         1 SUB1        0.000
     32 H32        16.7123   35.2694   21.9857 H         1 SUB1        0.000
     33 C1         20.7440   40.1960   23.0560 C.3       1 SUB1        0.000
     34 C2         19.6740   40.8210   24.0060 C.3       1 SUB1        0.000
     35 C3         20.2490   42.0550   24.7620 C.3       1 SUB1        0.000
     36 C4         21.7230   41.7600   25.2370 C.3       1 SUB1        0.000
     37 C5         22.5940   41.3520   24.0370 C.3       1 SUB1        0.000
     38 C6         24.1330   41.2660   24.1540 C.3       1 SUB1        0.000
     39 O2         18.4510   41.2270   23.3340 O.3       1 SUB1        0.000
     40 O3         19.3930   42.3650   25.8860 O.3       1 SUB1        0.000
     41 O4         21.7090   40.6570   26.1500 O.3       1 SUB1        0.000
     42 O5         22.0280   40.0910   23.6210 O.3       1 SUB1        0.000
     43 O6         24.7210   42.5180   24.5190 O.3       1 SUB1        0.000
     44 C1         22.2590   41.4680   19.9960 C.3       1 SUB1        0.000
     45 C2         21.2440   40.5310   20.6550 C.3       1 SUB1        0.000
     46 C3         19.8950   40.4580   19.9420 C.3       1 SUB1        0.000
     47 C4         19.3520   41.8780   19.6390 C.3       1 SUB1        0.000
     48 C5         20.4090   42.6140   18.7880 C.3       1 SUB1        0.000
     49 C6         19.9920   44.0640   18.4030 C.3       1 SUB1        0.000
     50 O1         22.8990   40.8160   18.9290 O.3       1 SUB1        0.000
     51 O2         20.9520   41.0570   21.9270 O.3       1 SUB1        0.000
     52 O3         18.9950   39.7290   20.8150 O.3       1 SUB1        0.000
     53 O4         18.1060   41.8470   18.9870 O.3       1 SUB1        0.000
     54 O5         21.6650   42.6930   19.5380 O.3       1 SUB1        0.000
     55 O6         19.0120   44.6520   19.2610 O.3       1 SUB1        0.000
     56 C1         18.0270   38.9440   20.1570 C.3       1 SUB1        0.000
     57 C2         16.9640   38.6100   21.1800 C.3       1 SUB1        0.000
     58 C3         17.5030   37.7060   22.2890 C.3       1 SUB1        0.000
     59 C4         18.2230   36.4670   21.7730 C.3       1 SUB1        0.000
     60 C5         19.2770   36.9230   20.6830 C.3       1 SUB1        0.000
     61 C6         19.8790   35.7270   19.9410 C.3       1 SUB1        0.000
     62 O2         16.4420   39.7800   21.8000 O.3       1 SUB1        0.000
     63 O4         17.3190   35.5060   21.2940 O.3       1 SUB1        0.000
     64 O5         18.6790   37.7970   19.6590 O.3       1 SUB1        0.000
@<TRIPOS>BOND
     1   33    1 1  
     2   34    2 1  
     3   35    3 1  
     4   36    4 1  
     5   37    5 1  
     6   38    6 1  
     7   38    7 1  
     8   39    8 1  
     9   40    9 1  
    10   41   10 1  
    11   43   11 1  
    12   44   12 1  
    13   45   13 1  
    14   46   14 1  
    15   47   15 1  
    16   48   16 1  
    17   49   17 1  
    18   49   18 1  
    19   50   19 1  
    20   53   20 1  
    21   55   21 1  
    22   56   22 1  
    23   57   23 1  
    24   58   24 1  
    25   58   25 1  
    26   59   26 1  
    27   60   27 1  
    28   61   28 1  
    29   61   29 1  
    30   61   30 1  
    31   62   31 1  
    32   63   32 1  
    33   33   34 1  
    34   33   42 1  
    35   34   35 1  
    36   34   39 1  
    37   35   36 1  
    38   35   40 1  
    39   36   37 1  
    40   36   41 1  
    41   37   38 1  
    42   37   42 1  
    43   38   43 1  
    44   44   45 1  
    45   44   50 1  
    46   44   54 1  
    47   45   46 1  
    48   45   51 1  
    49   46   47 1  
    50   46   52 1  
    51   47   48 1  
    52   47   53 1  
    53   48   49 1  
    54   48   54 1  
    55   49   55 1  
    56   51   33 1  
    57   52   56 1  
    58   56   57 1  
    59   56   64 1  
    60   57   58 1  
    61   57   62 1  
    62   58   59 1  
    63   59   60 1  
    64   59   63 1  
    65   60   61 1  
    66   60   64 1  
@<TRIPOS>SUBSTRUCTURE
     1 SUB1        1 GROUP

