### Name: 1mnc_ligand
### Creating user name: arthur
### Creation time: Tue Nov 27 11:30:21 2001


@<TRIPOS>MOLECULE
1mnc_ligand
   52    52     1     0     0
SMALL
USER_CHARGES


@<TRIPOS>ATOM
      1 H1         -3.3459   30.3151   23.1571 H         1 SUB1        0.000
      2 H2         -2.1298   29.2182   23.8950 H         1 SUB1        0.000
      3 H3         -3.1208   29.1320   21.0097 H         1 SUB1        0.000
      4 H4         -1.3812   27.0897   22.3980 H         1 SUB1        0.000
      5 H5         -0.8069   28.3373   21.2402 H         1 SUB1        0.000
      6 H6         -2.6950   26.0566   20.4944 H         1 SUB1        0.000
      7 H7         -1.9543   26.6911   18.1761 H         1 SUB1        0.000
      8 H8         -0.9197   27.9935   18.8541 H         1 SUB1        0.000
      9 H9         -2.7076   28.1063   18.9861 H         1 SUB1        0.000
     10 H10        -0.4301   25.2373   21.2130 H         1 SUB1        0.000
     11 H11         0.3432   26.4478   20.1344 H         1 SUB1        0.000
     12 H12        -0.6226   25.1060   19.4319 H         1 SUB1        0.000
     13 H13        -6.3073   27.0983   23.1583 H         1 SUB1        0.000
     14 H14        -7.2554   22.9500   22.9722 H         1 SUB1        0.000
     15 H15        -6.0468   23.1203   21.6543 H         1 SUB1        0.000
     16 H16        -7.7809   23.4608   21.3323 H         1 SUB1        0.000
     17 H17        -8.4323   27.2287   21.7557 H         1 SUB1        0.000
     18 H18        -7.4587   28.0186   20.4693 H         1 SUB1        0.000
     19 H19        -7.0759   30.3290   20.5478 H         1 SUB1        0.000
     20 H20        -7.4608   32.4944   21.6542 H         1 SUB1        0.000
     21 H21        -8.3750   32.5525   23.9507 H         1 SUB1        0.000
     22 H22        -8.8442   30.4756   25.1653 H         1 SUB1        0.000
     23 H23        -8.5310   28.3378   23.9986 H         1 SUB1        0.000
     24 H24        -0.0058   29.8884   23.7590 H         1 SUB1        0.000
     25 H25        -5.1423   28.3129   20.7853 H         1 SUB1        0.000
     26 H26        -6.8972   25.1687   23.3895 H         1 SUB1        0.000
     27 H27         1.6182   30.9735   23.1143 H         1 SUB1        0.000
     28 C1         -1.3850   30.5520   22.4640 C.2       1 SUB1        0.000
     29 C2         -2.4560   29.6990   22.9610 C.3       1 SUB1        0.000
     30 C3         -2.8150   28.6040   21.9250 C.3       1 SUB1        0.000
     31 C4         -1.6460   27.6780   21.5070 C.3       1 SUB1        0.000
     32 C5         -1.7950   26.6720   20.3490 C.3       1 SUB1        0.000
     33 C6         -1.8480   27.4200   18.9930 C.3       1 SUB1        0.000
     34 C7         -0.5380   25.8050   20.2770 C.3       1 SUB1        0.000
     35 C8         -3.9840   27.8500   22.3950 C.2       1 SUB1        0.000
     36 C9         -6.3010   27.1380   22.0590 C.3       1 SUB1        0.000
     37 C10        -6.4320   25.7800   21.5310 C.2       1 SUB1        0.000
     38 C11        -6.9760   23.5280   22.0790 C.3       1 SUB1        0.000
     39 C12        -7.5580   27.8650   21.5540 C.3       1 SUB1        0.000
     40 C13        -7.7780   29.1720   22.1900 C.ar      1 SUB1        0.000
     41 C14        -7.4810   30.3530   21.5530 C.ar      1 SUB1        0.000
     42 C15        -7.6900   31.5700   22.1720 C.ar      1 SUB1        0.000
     43 C16        -8.1990   31.5970   23.4700 C.ar      1 SUB1        0.000
     44 C17        -8.4790   30.4520   24.1450 C.ar      1 SUB1        0.000
     45 C18        -8.2810   29.2580   23.4830 C.ar      1 SUB1        0.000
     46 N1         -0.1510   30.5060   22.9860 N.am      1 SUB1        0.000
     47 N2         -5.1290   27.8230   21.6570 N.am      1 SUB1        0.000
     48 N3         -6.7760   24.8860   22.4380 N.am      1 SUB1        0.000
     49 O1          0.8610   31.1850   22.5810 O.3       1 SUB1        0.000
     50 O2         -1.6560   31.3070   21.5320 O.2       1 SUB1        0.000
     51 O3         -3.9210   27.2370   23.4660 O.2       1 SUB1        0.000
     52 O4         -6.2180   25.5760   20.3170 O.2       1 SUB1        0.000
@<TRIPOS>BOND
     1   29    1 1  
     2   29    2 1  
     3   30    3 1  
     4   31    4 1  
     5   31    5 1  
     6   32    6 1  
     7   33    7 1  
     8   33    8 1  
     9   33    9 1  
    10   34   10 1  
    11   34   11 1  
    12   34   12 1  
    13   36   13 1  
    14   38   14 1  
    15   38   15 1  
    16   38   16 1  
    17   39   17 1  
    18   39   18 1  
    19   41   19 1  
    20   42   20 1  
    21   43   21 1  
    22   44   22 1  
    23   45   23 1  
    24   46   24 1  
    25   47   25 1  
    26   48   26 1  
    27   49   27 1  
    28   29   28 1  
    29   28   46 am 
    30   28   50 2  
    31   29   30 1  
    32   30   31 1  
    33   30   35 1  
    34   31   32 1  
    35   32   33 1  
    36   32   34 1  
    37   35   47 am 
    38   35   51 2  
    39   36   37 1  
    40   36   39 1  
    41   47   36 1  
    42   37   48 am 
    43   37   52 2  
    44   39   40 1  
    45   40   41 ar 
    46   40   45 ar 
    47   41   42 ar 
    48   42   43 ar 
    49   43   44 ar 
    50   44   45 ar 
    51   46   49 1  
    52   48   38 1  
@<TRIPOS>SUBSTRUCTURE
     1 SUB1        1 GROUP

