### Name: 1pgp_ligand
### Creating user name: arthur
### Creation time: Tue Nov 27 11:30:21 2001


@<TRIPOS>MOLECULE
1pgp_ligand
   27    26     1     0     0
SMALL
USER_CHARGES


@<TRIPOS>ATOM
      1 H1         19.8107   27.8055   38.6434 H         1 SUB1        0.000
      2 H2         21.8044   26.8932   39.6927 H         1 SUB1        0.000
      3 H3         22.5695   28.1057   41.5339 H         1 SUB1        0.000
      4 H4         24.4174   27.1652   39.9930 H         1 SUB1        0.000
      5 H5         24.5197   29.1297   38.3083 H         1 SUB1        0.000
      6 H6         26.0443   28.3579   38.8618 H         1 SUB1        0.000
      7 H7         18.7835   28.6668   40.5420 H         1 SUB1        0.000
      8 H8         21.7468   27.8017   37.5461 H         1 SUB1        0.000
      9 H9         21.9012   30.2530   40.9412 H         1 SUB1        0.000
     10 H10        24.7616   27.9404   42.1818 H         1 SUB1        0.000
     11 C1         20.2160   29.9130   38.8060 C.2       1 SUB1        0.000
     12 C2         20.3270   28.4720   39.3500 C.3       1 SUB1        0.000
     13 C3         21.8460   27.9720   39.4820 C.3       1 SUB1        0.000
     14 C4         22.8470   28.5740   40.5780 C.3       1 SUB1        0.000
     15 C5         24.4050   28.2270   40.2800 C.3       1 SUB1        0.000
     16 C6         25.2040   29.0020   39.1600 C.3       1 SUB1        0.000
     17 O1A        21.2790   30.6310   38.5290 O.co2     1 SUB1       -0.500
     18 O1         19.1050   30.4010   38.5710 O.co2     1 SUB1       -0.500
     19 O2         19.6830   28.3710   40.6190 O.3       1 SUB1        0.000
     20 O3         22.3540   28.1650   38.1800 O.3       1 SUB1        0.000
     21 O4         22.7960   29.9890   40.7620 O.3       1 SUB1        0.000
     22 O5         25.1860   28.3860   41.4580 O.3       1 SUB1        0.000
     23 O6         25.7830   30.3680   39.4700 O.3       1 SUB1        0.000
     24 P          27.3900   30.6110   39.6170 P.3       1 SUB1        0.000
     25 O1P        27.7430   30.0220   40.9760 O.co2     1 SUB1       -0.500
     26 O2P        27.7890   32.0490   39.7730 O.co2     1 SUB1       -0.500
     27 O3P        28.2410   29.8860   38.4890 O.co2     1 SUB1       -0.500
@<TRIPOS>BOND
     1   12    1 1  
     2   13    2 1  
     3   14    3 1  
     4   15    4 1  
     5   16    5 1  
     6   16    6 1  
     7   19    7 1  
     8   20    8 1  
     9   21    9 1  
    10   22   10 1  
    11   12   11 1  
    12   11   17 ar 
    13   11   18 ar 
    14   12   13 1  
    15   12   19 1  
    16   13   14 1  
    17   13   20 1  
    18   14   15 1  
    19   14   21 1  
    20   15   16 1  
    21   15   22 1  
    22   16   23 1  
    23   23   24 1  
    24   24   25 ar 
    25   24   26 ar 
    26   24   27 ar 
@<TRIPOS>SUBSTRUCTURE
     1 SUB1        1 GROUP

