#	Name:			1rgl_ligand
#	Creating user name:	arthur
#	Creation time:		Thu Nov 14 22:05:47 2002

#	Modifying user name:	arthur
#	Modification time:	Thu Nov 14 22:08:15 2002

@<TRIPOS>MOLECULE
1rgl_ligand
   36    38     1     0     0
SMALL
MMFF94_CHARGES


@<TRIPOS>ATOM
      1 H1         26.5984   11.3074   -1.2409 H         1 SUB1        0.4000 
      2 H2         25.3520   12.8867   -0.0453 H         1 SUB1        0.0000 
      3 H3         24.4061   11.4083   -0.4279 H         1 SUB1        0.0000 
      4 H4         24.3918   13.8609   -2.2223 H         1 SUB1        0.0000 
      5 H5         23.3702   14.1571    0.2989 H         1 SUB1        0.0000 
      6 H6         21.9207   15.6168   -0.7662 H         1 SUB1        0.4000 
      7 H7         21.9650   12.1686    0.2902 H         1 SUB1        0.0000 
      8 H8         21.0459   12.9797   -2.5151 H         1 SUB1        0.0000 
      9 H9         19.7240   11.0963   -3.6156 H         1 SUB1        0.1500 
     10 H10        22.2553    6.7501    0.4550 H         1 SUB1        0.3700 
     11 H11        23.7598    7.6809    1.7643 H         1 SUB1        0.4000 
     12 H12        24.1517    9.4172    1.6457 H         1 SUB1        0.4000 
     13 P          19.9730   13.7230    1.2210 P.3       1 SUB1        1.3712 
     14 O1P        21.0390   14.4190    2.0320 O.co2     1 SUB1       -1.0333 
     15 O2P        19.7390   12.3150    1.6690 O.2       1 SUB1       -1.0333 
     16 O3P        18.7110   14.5160    1.0680 O.co2     1 SUB1       -1.0333 
     17 O5'        25.9810   11.8310   -1.7380 O.3       1 SUB1       -0.6800 
     18 C5'        24.9080   12.2890   -0.8550 C.3       1 SUB1        0.2800 
     19 C4'        23.8590   13.1470   -1.5770 C.3       1 SUB1        0.2800 
     20 O4'        22.9950   12.2990   -2.3790 O.3       1 SUB1       -0.5600 
     21 C3'        22.9060   13.9170   -0.6690 C.3       1 SUB1        0.2800 
     22 O3'        22.5150   15.1310   -1.3260 O.3       1 SUB1       -0.6800 
     23 C2'        21.7510   12.9170   -0.4870 C.3       1 SUB1        0.2800 
     24 O2'        20.5270   13.5590   -0.2440 O.3       1 SUB1       -0.5512 
     25 C1'        21.6750   12.3280   -1.8910 C.3       1 SUB1        0.5356 
     26 N9         21.1660   10.9690   -1.9760 N.pl3     1 SUB1        0.0476 
     27 C8         20.2250   10.4820   -2.8690 C.2       1 SUB1        0.0365 
     28 N7         20.0050    9.1960   -2.7140 N.2       1 SUB1       -0.5653 
     29 C5         20.8660    8.8110   -1.6670 C.2       1 SUB1        0.1412 
     30 C6         21.0770    7.5400   -1.0480 C.2       1 SUB1        0.7160 
     31 O6         20.5250    6.4590   -1.2980 O.2       1 SUB1       -0.5700 
     32 N1         22.0420    7.5970   -0.0320 N.am      1 SUB1       -0.4900 
     33 C2         22.7150    8.7360    0.3410 C.2       1 SUB1        0.5600 
     34 N2         23.6110    8.6010    1.3260 N.pl3     1 SUB1       -0.8500 
     35 N3         22.5300    9.9260   -0.2180 N.2       1 SUB1       -0.5760 
     36 C4         21.5890    9.8940   -1.2050 C.2       1 SUB1       -0.0256 
@<TRIPOS>BOND
     1   17    1 1    
     2   18    2 1    
     3   18    3 1    
     4   19    4 1    
     5   21    5 1    
     6   22    6 1    
     7   23    7 1    
     8   25    8 1    
     9   27    9 1    
    10   32   10 1    
    11   34   11 1    
    12   34   12 1    
    13   13   14 ar   
    14   13   15 1    
    15   13   16 ar   
    16   24   13 1    
    17   18   17 1    
    18   19   18 1    
    19   20   19 1    
    20   19   21 1    
    21   21   22 1    
    22   23   21 1    
    23   23   24 1    
    24   25   23 1    
    25   25   20 1    
    26   26   25 1    
    27   26   27 1    
    28   36   26 1    
    29   28   27 2    
    30   29   28 1    
    31   30   29 1    
    32   29   36 2    
    33   30   31 2    
    34   32   30 am   
    35   33   32 am   
    36   33   34 1    
    37   33   35 2    
    38   35   36 1    
@<TRIPOS>SUBSTRUCTURE
     1 SUB1        1 GROUP             0 ****  ****    0 ROOT 
