### Name: 1snc_ligand
### Creating user name: arthur
### Creation time: Tue Nov 27 11:30:22 2001


@<TRIPOS>MOLECULE
1snc_ligand
   37    38     1     0     0
SMALL
USER_CHARGES


@<TRIPOS>ATOM
      1 H1          2.5229   20.0797   26.1829 H         1 SUB1        0.000
      2 H2          3.4199   18.4592   21.0885 H         1 SUB1        0.000
      3 H3          3.5607   20.2009   21.5045 H         1 SUB1        0.000
      4 H4          1.9471   19.4124   21.4742 H         1 SUB1        0.000
      5 H5          4.0342   16.9541   22.8109 H         1 SUB1        0.000
      6 H6          4.5358   16.0877   26.4283 H         1 SUB1        0.000
      7 H7          2.3191   15.3453   24.4526 H         1 SUB1        0.000
      8 H8          2.4039   15.0432   26.2213 H         1 SUB1        0.000
      9 H9          3.1334   13.0233   24.5825 H         1 SUB1        0.000
     10 H10         5.7488   13.6371   24.1776 H         1 SUB1        0.000
     11 H11         3.6859   14.9671   22.3825 H         1 SUB1        0.000
     12 H12         4.1312   13.2288   22.2993 H         1 SUB1        0.000
     13 N1          3.8380   17.4430   24.8980 N.am      1 SUB1        0.000
     14 C2          3.4490   18.3000   25.8740 C.2       1 SUB1        0.000
     15 O2          3.6100   17.9890   27.0660 O.2       1 SUB1        0.000
     16 N3          2.8620   19.4500   25.4840 N.am      1 SUB1        0.000
     17 C4          2.7130   19.7880   24.1550 C.2       1 SUB1        0.000
     18 O4          2.1580   20.8790   24.0040 O.2       1 SUB1        0.000
     19 C5          3.1610   18.9090   23.1710 C.2       1 SUB1        0.000
     20 C5M         3.0120   19.2700   21.7100 C.3       1 SUB1        0.000
     21 C6          3.7140   17.6860   23.5510 C.2       1 SUB1        0.000
     22 C1'         4.1490   16.0590   25.3990 C.3       1 SUB1        0.000
     23 C2'         2.9870   15.0950   25.2900 C.3       1 SUB1        0.000
     24 C3'         3.7890   13.7860   25.0280 C.3       1 SUB1        0.000
     25 O3'         4.4680   13.2100   26.1900 O.3       1 SUB1        0.000
     26 P3'         4.7990   11.6290   26.2900 P.3       1 SUB1        0.000
     27 O13         4.3660   11.1280   27.5990 O.co2     1 SUB1       -0.500
     28 O23         6.2080   11.4670   25.8810 O.co2     1 SUB1       -0.500
     29 O33         3.8920   10.9670   25.1500 O.co2     1 SUB1       -0.500
     30 C4'         4.8490   14.2570   24.0510 C.3       1 SUB1        0.000
     31 O4'         5.1100   15.5860   24.4560 O.3       1 SUB1        0.000
     32 C5'         4.4780   14.2320   22.5880 C.3       1 SUB1        0.000
     33 O5'         5.6640   14.5700   21.8730 O.3       1 SUB1        0.000
     34 P5'         6.2350   13.8860   20.5750 P.3       1 SUB1        0.000
     35 O15         5.2980   13.8280   19.4370 O.co2     1 SUB1       -0.500
     36 O25         7.4840   14.6290   20.2790 O.co2     1 SUB1       -0.500
     37 O35         6.5180   12.4030   21.0720 O.co2     1 SUB1       -0.500
@<TRIPOS>BOND
     1   16    1 1  
     2   20    2 1  
     3   20    3 1  
     4   20    4 1  
     5   21    5 1  
     6   22    6 1  
     7   23    7 1  
     8   23    8 1  
     9   24    9 1  
    10   30   10 1  
    11   32   11 1  
    12   32   12 1  
    13   13   14 am 
    14   13   21 am 
    15   13   22 1  
    16   14   15 2  
    17   14   16 am 
    18   16   17 am 
    19   17   18 2  
    20   17   19 1  
    21   19   20 1  
    22   19   21 2  
    23   22   23 1  
    24   22   31 1  
    25   23   24 1  
    26   24   25 1  
    27   24   30 1  
    28   25   26 1  
    29   26   27 ar 
    30   26   28 ar 
    31   26   29 ar 
    32   30   31 1  
    33   30   32 1  
    34   32   33 1  
    35   33   34 1  
    36   34   35 ar 
    37   34   36 ar 
    38   34   37 ar 
@<TRIPOS>SUBSTRUCTURE
     1 SUB1        1 GROUP

