### Name: 1tet_ligand
### Creating user name: arthur
### Creation time: Tue Nov 27 11:30:22 2001


@<TRIPOS>MOLECULE
1tet_ligand
   18    17     1     0     0
SMALL
USER_CHARGES


@<TRIPOS>ATOM
      1 H1         51.5050   53.3762   80.2526 H         1 SUB1        0.000
      2 H2         51.8297   51.7029   80.8195 H         1 SUB1        0.000
      3 H3         54.6797   53.3641   78.5424 H         1 SUB1        0.000
      4 H4         51.7174   52.6791   78.6881 H         1 SUB1        0.000
      5 H5         52.1257   51.0919   79.4234 H         1 SUB1        0.000
      6 C1         52.3610   53.2470   82.2270 C.2       1 SUB1        0.000
      7 O1         53.4830   53.1680   82.7580 O.co2     1 SUB1       -0.500
      8 O2         51.3370   53.3410   82.9490 O.co2     1 SUB1       -0.500
      9 C2         52.2300   52.7260   80.7640 C.3       1 SUB1        0.000
     10 C3         53.4860   52.6720   79.8850 C.3       1 SUB1        0.000
     11 O7         53.8660   53.6290   78.9550 O.3       1 SUB1        0.000
     12 C4         52.5290   51.9640   78.8880 C.3       1 SUB1        0.000
     13 C5         52.9820   51.4440   77.5140 C.2       1 SUB1        0.000
     14 O3         52.2400   51.6590   76.5460 O.co2     1 SUB1       -0.500
     15 O4         53.9710   50.7170   77.3850 O.co2     1 SUB1       -0.500
     16 C6         54.5590   51.6170   80.2220 C.2       1 SUB1        0.000
     17 O5         55.6410   51.5700   79.5950 O.co2     1 SUB1       -0.500
     18 O6         54.2880   50.7070   81.0010 O.co2     1 SUB1       -0.500
@<TRIPOS>BOND
     1    9    1 1  
     2    9    2 1  
     3   11    3 1  
     4   12    4 1  
     5   12    5 1  
     6    6    7 ar 
     7    6    8 ar 
     8    6    9 1  
     9    9   10 1  
    10   10   11 1  
    11   10   12 1  
    12   10   16 1  
    13   12   13 1  
    14   13   14 ar 
    15   13   15 ar 
    16   16   17 ar 
    17   16   18 ar 
@<TRIPOS>SUBSTRUCTURE
     1 SUB1        1 GROUP

