### Name: 1tha_ligand
### Creating user name: arthur
### Creation time: Tue Nov 27 11:30:22 2001


@<TRIPOS>MOLECULE
1tha_ligand
   35    36     1     0     0
SMALL
USER_CHARGES


@<TRIPOS>ATOM
      1 H1         19.3274   43.8323    4.5166 H         1 SUB1        0.000
      2 H2         23.7376   42.6162    6.2629 H         1 SUB1        0.000
      3 H3         22.7576   41.3242    4.4862 H         1 SUB1        0.000
      4 H4         19.1926   42.2144    3.3089 H         1 SUB1        0.000
      5 H5         20.1128   40.7111    3.6554 H         1 SUB1        0.000
      6 H6         20.9685   40.6008    1.6776 H         1 SUB1        0.000
      7 H7         22.0132   42.6590    8.2264 H         1 SUB1        0.000
      8 H8         22.1614   45.6559   12.0532 H         1 SUB1        0.000
      9 H9         22.6182   46.7250    9.8414 H         1 SUB1        0.000
     10 H10        21.4993   42.3707    0.2513 H         1 SUB1        0.000
     11 H11        22.2602   42.4984    1.7054 H         1 SUB1        0.000
     12 H12        20.9846   43.4781    1.3550 H         1 SUB1        0.000
     13 H13        21.4667   42.2548   12.6063 H         1 SUB1        0.000
     14 C1         20.9440   42.4430    4.3060 C.ar      1 SUB1        0.000
     15 C2         20.3030   43.5520    4.8970 C.ar      1 SUB1        0.000
     16 C3         20.8260   44.2970    5.9150 C.ar      1 SUB1        0.000
     17 C4         22.1000   43.9760    6.4920 C.ar      1 SUB1        0.000
     18 C5         22.7540   42.8930    5.9010 C.ar      1 SUB1        0.000
     19 C6         22.1960   42.1650    4.8770 C.ar      1 SUB1        0.000
     20 C7         20.1850   41.7410    3.2760 C.3       1 SUB1        0.000
     21 C8         20.4570   41.5670    1.7990 C.3       1 SUB1        0.000
     22 C9         19.0950   41.4290    1.1160 C.2       1 SUB1        0.000
     23 C1'        22.2930   44.6090    8.9540 C.ar      1 SUB1        0.000
     24 C2'        22.0380   43.2750    9.1180 C.ar      1 SUB1        0.000
     25 C3'        21.8100   42.6510   10.3260 C.ar      1 SUB1        0.000
     26 C4'        21.8580   43.6470   11.3500 C.ar      1 SUB1        0.000
     27 C5'        22.1440   45.0420   11.1600 C.ar      1 SUB1        0.000
     28 C6'        22.3940   45.6750    9.9910 C.ar      1 SUB1        0.000
     29 N8         21.3710   42.5550    1.2340 N.4       1 SUB1        1.000
     30 O4         22.4990   44.8170    7.5290 O.3       1 SUB1        0.000
     31 O4'        21.6430   43.1880   12.6300 O.3       1 SUB1        0.000
     32 O9         18.6380   42.1830    0.2560 O.co2     1 SUB1       -0.500
     33 O10        18.3530   40.4760    1.4640 O.co2     1 SUB1       -0.500
     34 I3         19.6180   45.8310    6.5910 I         1 SUB1        0.000
     35 I3'        21.3570   40.5190   10.6480 I         1 SUB1        0.000
@<TRIPOS>BOND
     1   15    1 1  
     2   18    2 1  
     3   19    3 1  
     4   20    4 1  
     5   20    5 1  
     6   21    6 1  
     7   24    7 1  
     8   27    8 1  
     9   28    9 1  
    10   29   10 1  
    11   29   11 1  
    12   29   12 1  
    13   31   13 1  
    14   15   14 ar 
    15   14   19 ar 
    16   14   20 1  
    17   15   16 ar 
    18   16   17 ar 
    19   16   34 1  
    20   17   18 ar 
    21   17   30 1  
    22   18   19 ar 
    23   20   21 1  
    24   21   22 1  
    25   21   29 1  
    26   22   32 ar 
    27   22   33 ar 
    28   23   24 ar 
    29   23   28 ar 
    30   30   23 1  
    31   24   25 ar 
    32   25   26 ar 
    33   25   35 1  
    34   26   27 ar 
    35   26   31 1  
    36   27   28 ar 
@<TRIPOS>SUBSTRUCTURE
     1 SUB1        1 GROUP

