### Name: 1tmt_ligand
### Creating user name: arthur
### Creation time: Tue Nov 27 11:30:22 2001


@<TRIPOS>MOLECULE
1tmt_ligand
   61    62     1     0     0
SMALL
USER_CHARGES


@<TRIPOS>ATOM
      1 H          85.5031   43.6001   44.6345 H         1 SUB1        0.000
      2 HA         86.8164   42.0115   45.2014 H         1 SUB1        0.000
      3 HB2        88.5723   43.6007   44.2965 H         1 SUB1        0.000
      4 HB1        88.5441   42.6519   42.7715 H         1 SUB1        0.000
      5 HD1        88.7783   42.0448   46.5063 H         1 SUB1        0.000
      6 HD2        90.0360   41.0108   42.5382 H         1 SUB1        0.000
      7 HE1        90.3781   40.3603   47.4021 H         1 SUB1        0.000
      8 HE2        91.6091   39.2941   43.4070 H         1 SUB1        0.000
      9 HZ         91.7696   39.0290   45.8755 H         1 SUB1        0.000
     10 HA         86.4553   38.3454   42.6060 H         1 SUB1        0.000
     11 HB2        85.9451   36.5493   43.9664 H         1 SUB1        0.000
     12 HB1        84.4811   37.3506   44.6305 H         1 SUB1        0.000
     13 HG1        85.8071   37.6289   46.5039 H         1 SUB1        0.000
     14 HG2        87.3321   37.4737   45.5675 H         1 SUB1        0.000
     15 HD1        85.6908   39.9145   46.1620 H         1 SUB1        0.000
     16 HD2        87.4409   39.7758   45.7821 H         1 SUB1        0.000
     17 H          84.7673   37.3804   41.3021 H         1 SUB1        0.000
     18 HA         82.3000   39.0158   41.3548 H         1 SUB1        0.000
     19 HB2        82.1502   38.3730   38.8507 H         1 SUB1        0.000
     20 HB1        83.9084   38.0391   39.0046 H         1 SUB1        0.000
     21 HG2        84.0518   40.4094   40.0439 H         1 SUB1        0.000
     22 HG1        82.4151   40.6561   39.3462 H         1 SUB1        0.000
     23 HD2        83.3922   40.1008   37.0822 H         1 SUB1        0.000
     24 HD1        85.0153   40.1116   37.8514 H         1 SUB1        0.000
     25 HE         83.9111   42.4842   38.6828 H         1 SUB1        0.000
     26 HH11       84.4243   41.1232   35.4521 H         1 SUB1        0.000
     27 HH12       84.5391   42.7336   34.6929 H         1 SUB1        0.000
     28 HH21       84.0356   44.5395   37.6218 H         1 SUB1        0.000
     29 HH22       84.3297   44.5821   35.8627 H         1 SUB1        0.000
     30 H1         85.3942   43.0802   43.0765 H         1 SUB1        0.000
     31 H2         86.5826   44.1327   43.5119 H         1 SUB1        0.000
     32 N          86.0290   43.3460   43.8130 N.4       1 SUB1        1.000
     33 CA         86.9080   42.2240   44.1260 C.3       1 SUB1        0.000
     34 C          86.4570   40.9620   43.3720 C.2       1 SUB1        0.000
     35 O          86.3780   41.0130   42.1420 O.2       1 SUB1        0.000
     36 CB         88.3770   42.6110   43.8580 C.3       1 SUB1        0.000
     37 CG         89.3160   41.6220   44.4560 C.ar      1 SUB1        0.000
     38 CD1        89.3950   41.4560   45.8370 C.ar      1 SUB1        0.000
     39 CD2        90.1140   40.8540   43.6080 C.ar      1 SUB1        0.000
     40 CE1        90.2910   40.5100   46.3320 C.ar      1 SUB1        0.000
     41 CE2        91.0060   39.8950   44.0780 C.ar      1 SUB1        0.000
     42 CZ         91.0780   39.7530   45.4600 C.ar      1 SUB1        0.000
     43 N          86.1520   39.8180   44.0750 N.am      1 SUB1        0.000
     44 CA         85.7000   38.6200   43.3570 C.3       1 SUB1        0.000
     45 C          84.3600   38.8310   42.6600 C.2       1 SUB1        0.000
     46 O          83.5850   39.6840   43.0620 O.2       1 SUB1        0.000
     47 CB         85.5410   37.4890   44.3710 C.3       1 SUB1        0.000
     48 CG         86.3290   37.9250   45.5820 C.3       1 SUB1        0.000
     49 CD         86.4310   39.4470   45.4960 C.3       1 SUB1        0.000
     50 N          84.0960   38.0600   41.5980 N.am      1 SUB1        0.000
     51 CA         82.8570   38.1970   40.8760 C.3       1 SUB1        0.000
     52 C          82.0160   36.9610   41.0190 C.2       1 SUB1        0.000
     53 O          82.3790   36.1460   41.9160 O.co2     1 SUB1       -0.500
     54 CB         83.0640   38.6130   39.4140 C.3       1 SUB1        0.000
     55 CG         83.3630   40.1080   39.2410 C.3       1 SUB1        0.000
     56 CD         83.9920   40.5110   37.9080 C.3       1 SUB1        0.000
     57 NE         84.0330   41.9660   37.8010 N.pl3     1 SUB1        0.000
     58 CZ         84.2090   42.7160   36.7020 C.cat     1 SUB1        0.000
     59 NH1        84.4050   42.1500   35.5310 N.pl3     1 SUB1        0.500
     60 NH2        84.1900   44.0460   36.7310 N.pl3     1 SUB1        0.500
     61 OXT        81.0830   36.9050   40.2000 O.co2     1 SUB1       -0.500
@<TRIPOS>BOND
     1   32    1 1  
     2   33    2 1  
     3   36    3 1  
     4   36    4 1  
     5   38    5 1  
     6   39    6 1  
     7   40    7 1  
     8   41    8 1  
     9   42    9 1  
    10   44   10 1  
    11   47   11 1  
    12   47   12 1  
    13   48   13 1  
    14   48   14 1  
    15   49   15 1  
    16   49   16 1  
    17   50   17 1  
    18   51   18 1  
    19   54   19 1  
    20   54   20 1  
    21   55   21 1  
    22   55   22 1  
    23   56   23 1  
    24   56   24 1  
    25   57   25 1  
    26   59   26 1  
    27   59   27 1  
    28   60   28 1  
    29   60   29 1  
    30   32   30 1  
    31   32   31 1  
    32   33   32 1  
    33   33   36 1  
    34   33   34 1  
    35   34   35 2  
    36   36   37 1  
    37   37   38 ar 
    38   37   39 ar 
    39   39   41 ar 
    40   41   42 ar 
    41   42   40 ar 
    42   40   38 ar 
    43   44   45 1  
    44   44   47 1  
    45   44   43 1  
    46   43   49 1  
    47   49   48 1  
    48   48   47 1  
    49   45   46 2  
    50   34   43 am 
    51   51   50 1  
    52   51   54 1  
    53   51   52 1  
    54   52   53 ar 
    55   52   61 ar 
    56   54   55 1  
    57   55   56 1  
    58   56   57 1  
    59   57   58 ar 
    60   58   60 ar 
    61   58   59 ar 
    62   45   50 am 
@<TRIPOS>SUBSTRUCTURE
     1 SUB1        1 GROUP

