### Name: 1tnl_ligand
### Creating user name: arthur
### Creation time: Tue Nov 27 11:30:22 2001


@<TRIPOS>MOLECULE
1tnl_ligand
   22    23     1     0     0
SMALL
USER_CHARGES


@<TRIPOS>ATOM
      1 H1         31.2151   15.2425   15.1767 H         1 SUB1        0.000
      2 H2         28.0588   14.7427   15.1460 H         1 SUB1        0.000
      3 H3         28.7638   17.2347   14.7204 H         1 SUB1        0.000
      4 H4         29.7207   17.1996   16.2402 H         1 SUB1        0.000
      5 H5         28.2799   16.4715   17.9061 H         1 SUB1        0.000
      6 H6         28.3870   15.5608   20.2056 H         1 SUB1        0.000
      7 H7         29.3034   13.2973   20.5851 H         1 SUB1        0.000
      8 H8         30.1459   11.9481   18.6953 H         1 SUB1        0.000
      9 H9         30.0419   12.8560   16.3931 H         1 SUB1        0.000
     10 C1         30.1900   15.4610   14.8430 C.3       1 SUB1        0.000
     11 C2         28.9490   15.1840   15.6180 C.3       1 SUB1        0.000
     12 C3         29.3470   16.5960   15.4000 C.3       1 SUB1        0.000
     13 C1'        29.1430   14.7060   17.0310 C.ar      1 SUB1        0.000
     14 C2'        28.6820   15.4810   18.0860 C.ar      1 SUB1        0.000
     15 C3'        28.7430   14.9720   19.3680 C.ar      1 SUB1        0.000
     16 C4'        29.2640   13.6990   19.5790 C.ar      1 SUB1        0.000
     17 C5'        29.7350   12.9350   18.5160 C.ar      1 SUB1        0.000
     18 C6'        29.6770   13.4390   17.2310 C.ar      1 SUB1        0.000
     19 N          29.9220   15.1630   13.4350 N.4       1 SUB1        1.000
     20 HN1        30.6720   15.6490   12.9020 H         1 SUB1        0.000
     21 HN2        29.0190   15.5550   13.1220 H         1 SUB1        0.000
     22 HN3        30.0480   14.1410   13.2820 H         1 SUB1        0.000
@<TRIPOS>BOND
     1   10    1 1  
     2   11    2 1  
     3   12    3 1  
     4   12    4 1  
     5   14    5 1  
     6   15    6 1  
     7   16    7 1  
     8   17    8 1  
     9   18    9 1  
    10   10   11 1  
    11   10   12 1  
    12   10   19 1  
    13   11   12 1  
    14   11   13 1  
    15   13   14 ar 
    16   13   18 ar 
    17   14   15 ar 
    18   15   16 ar 
    19   16   17 ar 
    20   17   18 ar 
    21   19   20 1  
    22   19   21 1  
    23   19   22 1  
@<TRIPOS>SUBSTRUCTURE
     1 SUB1        1 GROUP

