### Name: 1ulb_ligand
### Creating user name: arthur
### Creation time: Tue Nov 27 11:30:29 2001


@<TRIPOS>MOLECULE
1ulb_ligand
   16    17     1     0     0
SMALL
USER_CHARGES


@<TRIPOS>ATOM
      1 N9          2.9390   18.6780   25.7470 N.pl3     1 SUB1        0.000
      2 C8          2.6420   19.7880   26.5580 C.2       1 SUB1        0.000
      3 N7          1.7900   19.4970   27.5610 N.2       1 SUB1        0.000
      4 C5          1.5740   18.1210   27.3780 C.2       1 SUB1        0.000
      5 C6          0.7400   17.2820   28.1270 C.2       1 SUB1        0.000
      6 O6          0.0380   17.6050   29.0880 O.2       1 SUB1        0.000
      7 N1          0.7090   15.9810   27.6170 N.am      1 SUB1        0.000
      8 C2          1.4290   15.5910   26.5300 C.2       1 SUB1        0.000
      9 N2          1.3370   14.3080   26.1520 N.pl3     1 SUB1        0.000
     10 N3          2.2350   16.3870   25.8550 N.2       1 SUB1        0.000
     11 C4          2.2470   17.6290   26.3050 C.2       1 SUB1        0.000
     12 H1          3.5446   18.6557   24.9142 H         1 SUB1        0.000
     13 H2          3.0578   20.7808   26.3925 H         1 SUB1        0.000
     14 H3          0.1302   15.3046   28.0725 H         1 SUB1        0.000
     15 H4          1.8661   13.9728   25.3343 H         1 SUB1        0.000
     16 H5          0.7372   13.6575   26.6793 H         1 SUB1        0.000
@<TRIPOS>BOND
     1    1    2 1  
     2    1   11 1  
     3    2    3 2  
     4    3    4 1  
     5    4    5 1  
     6    4   11 2  
     7    5    6 2  
     8    5    7 am 
     9    7    8 am 
    10    8    9 1  
    11    8   10 2  
    12   10   11 1  
    13    1   12 1  
    14    2   13 1  
    15    7   14 1  
    16    9   15 1  
    17    9   16 1  
@<TRIPOS>SUBSTRUCTURE
     1 SUB1        1 GROUP

