#	Name:			1yyy_ligand
#	Creating user name:	arthur
#	Creation time:		Tue Feb 26 00:02:44 2002

#	Modifying user name:	arthur
#	Modification time:	Tue Feb 26 00:03:29 2002

@<TRIPOS>MOLECULE
1yyy_ligand
   59    60     1     0     0
SMALL
USER_CHARGES


@<TRIPOS>ATOM
      1 S1         24.1170    5.6950   29.9690 S.o2      1 SUB1        0.0000 
      2 O1         23.2240    6.1850   28.9230 O.2       1 SUB1        0.0000 
      3 O2         23.3720    4.9650   30.9930 O.2       1 SUB1        0.0000 
      4 N          25.2070    4.6360   29.2610 N.am      1 SUB1        0.0000 
      5 CA         25.6080    3.3340   29.6730 C.3       1 SUB1        0.0000 
      6 CB         26.1630    3.3970   31.0710 C.3       1 SUB1        0.0000 
      7 CG         26.3840    2.0510   31.7140 C.3       1 SUB1        0.0000 
      8 C          24.5160    2.2170   29.5080 C.2       1 SUB1        0.0000 
      9 CD         25.2270    1.0820   31.6160 C.3       1 SUB1        0.0000 
     10 O          23.7770    2.4060   28.5310 O.2       1 SUB1        0.0000 
     11 N          24.5500    1.1280   30.2950 N.am      1 SUB1        0.0000 
     12 CA         23.5560    0.0650   29.9410 C.3       1 SUB1        0.0000 
     13 C          22.3610    0.9520   30.3660 C.2       1 SUB1        0.0000 
     14 O          22.1550    1.3880   31.5460 O.2       1 SUB1        0.0000 
     15 C2         19.9660    2.0220   28.2830 C.3       1 SUB1        0.0000 
     16 C3         20.1020    2.0220   26.7530 C.3       1 SUB1        0.0000 
     17 N          21.4210    0.2370   29.5930 N.am      1 SUB1        0.0000 
     18 C15        20.0270    0.4370   30.0990 C.3       1 SUB1        0.0000 
     19 C16        19.5200   -0.6460   31.0470 C.3       1 SUB1        0.0000 
     20 O5         18.0960   -0.5750   31.1730 O.3       1 SUB1        0.0000 
     21 C17        19.1230    0.8780   28.9040 C.3       1 SUB1        0.0000 
     22 CZ         20.0210    3.8610   24.9590 C.cat     1 SUB1        0.0000 
     23 NE         20.4800    3.3890   26.2550 N.pl3     1 SUB1        0.0000 
     24 CD         21.2770    4.2670   27.2060 C.3       1 SUB1        0.0000 
     25 CG         20.4380    4.6230   28.4460 C.3       1 SUB1        0.0000 
     26 C1         19.7210    3.3550   29.0270 C.3       1 SUB1        0.0000 
     27 NH1        20.2210    5.1190   24.6300 N.pl3     1 SUB1        0.5000 
     28 NH2        19.4280    2.9970   24.1840 N.pl3     1 SUB1        0.5000 
     29 H1         24.6050    6.4695   30.3909 H         1 SUB1        0.0000 
     30 H2         25.6404    4.9691   28.4236 H         1 SUB1        0.0000 
     31 H3         26.4377    3.0415   29.0127 H         1 SUB1        0.0000 
     32 H4         25.4583    3.9653   31.6958 H         1 SUB1        0.0000 
     33 H5         27.1280    3.9237   31.0348 H         1 SUB1        0.0000 
     34 H6         26.5975    2.2163   32.7803 H         1 SUB1        0.0000 
     35 H7         27.2569    1.5854   31.2331 H         1 SUB1        0.0000 
     36 H8         24.4927    1.3308   32.3963 H         1 SUB1        0.0000 
     37 H9         25.6067    0.0629   31.7813 H         1 SUB1        0.0000 
     38 H10        23.5523   -0.1953   28.8723 H         1 SUB1        0.0000 
     39 H11        23.6592   -0.8510   30.5412 H         1 SUB1        0.0000 
     40 H12        20.9910    1.7667   28.5898 H         1 SUB1        0.0000 
     41 H13        19.1418    1.7268   26.3048 H         1 SUB1        0.0000 
     42 H14        20.8804    1.3024   26.4593 H         1 SUB1        0.0000 
     43 H15        21.6571   -0.3322   28.8054 H         1 SUB1        0.0000 
     44 H16        20.0808    1.3271   30.7431 H         1 SUB1        0.0000 
     45 H17        19.9785   -0.5044   32.0368 H         1 SUB1        0.0000 
     46 H18        19.7996   -1.6335   30.6512 H         1 SUB1        0.0000 
     47 H19        17.7963   -1.2545   31.7654 H         1 SUB1        0.0000 
     48 H20        18.9732    0.0557   28.1889 H         1 SUB1        0.0000 
     49 H21        18.1458    1.2430   29.2530 H         1 SUB1        0.0000 
     50 H22        21.5659    5.1928   26.6870 H         1 SUB1        0.0000 
     51 H23        22.1813    3.7275   27.5241 H         1 SUB1        0.0000 
     52 H24        19.6786    5.3673   28.1642 H         1 SUB1        0.0000 
     53 H25        21.0985    5.0468   29.2168 H         1 SUB1        0.0000 
     54 H26        20.0605    3.2255   30.0652 H         1 SUB1        0.0000 
     55 H27        18.6384    3.5493   29.0168 H         1 SUB1        0.0000 
     56 H28        19.9018    5.4691   23.7154 H         1 SUB1        0.0000 
     57 H29        20.6968    5.7538   25.2870 H         1 SUB1        0.0000 
     58 H30        19.3011    2.0246   24.4991 H         1 SUB1        0.0000 
     59 H31        19.0863    3.2866   23.2565 H         1 SUB1        0.0000 
@<TRIPOS>BOND
     1    1    3 2    
     2    1    2 2    
     3    5    4 1    
     4    8    5 1    
     5    5    6 1    
     6    7    6 1    
     7    9    7 1    
     8    8   10 2    
     9   13   12 1    
    10   12   11 1    
    11   13   14 2    
    12   15   26 1    
    13   21   15 1    
    14   15   16 1    
    15   16   23 1    
    16   23   22 ar   
    17   23   24 1    
    18   25   24 1    
    19   26   25 1    
    20   22   27 ar   
    21   22   28 ar   
    22   18   21 1    
    23   18   19 1    
    24   17   18 1    
    25   19   20 1    
    26    4    1 1    
    27   11    8 am   
    28   11    9 1    
    29   17   13 am   
    30    1   29 1    
    31    4   30 1    
    32    5   31 1    
    33    6   32 1    
    34    6   33 1    
    35    7   34 1    
    36    7   35 1    
    37    9   36 1    
    38    9   37 1    
    39   12   38 1    
    40   12   39 1    
    41   15   40 1    
    42   16   41 1    
    43   16   42 1    
    44   17   43 1    
    45   18   44 1    
    46   19   45 1    
    47   19   46 1    
    48   20   47 1    
    49   21   48 1    
    50   21   49 1    
    51   24   50 1    
    52   24   51 1    
    53   25   52 1    
    54   25   53 1    
    55   26   54 1    
    56   26   55 1    
    57   27   56 1    
    58   27   57 1    
    59   28   58 1    
    60   28   59 1    
@<TRIPOS>SUBSTRUCTURE
     1 SUB1        1 GROUP             0 ****  ****    0 ROOT 
