### Name: 2ak3_ligand
### Creating user name: arthur
### Creation time: Tue Nov 27 11:30:22 2001


@<TRIPOS>MOLECULE
2ak3_ligand
   35    37     1     0     0
SMALL
USER_CHARGES


@<TRIPOS>ATOM
      1 H1          3.6302   34.0903   67.1311 H         1 SUB1        0.000
      2 H2          2.1236   35.0261   66.8465 H         1 SUB1        0.000
      3 H3          3.1248   35.4061   69.1025 H         1 SUB1        0.000
      4 H4          2.8130   37.7267   67.1323 H         1 SUB1        0.000
      5 H5          1.2960   38.3497   68.7497 H         1 SUB1        0.000
      6 H6          3.7737   39.2712   68.8532 H         1 SUB1        0.000
      7 H7          4.2504   38.2864   70.8910 H         1 SUB1        0.000
      8 H8          5.7085   37.5521   69.2834 H         1 SUB1        0.000
      9 H9          6.3036   36.8339   65.8716 H         1 SUB1        0.000
     10 H10         8.2973   42.7142   65.2046 H         1 SUB1        0.000
     11 H11         8.0174   41.1545   64.3850 H         1 SUB1        0.000
     12 H12         6.8886   42.1339   69.4622 H         1 SUB1        0.000
     13 PA          3.1560   35.5340   64.3880 P.3       1 SUB1        0.000
     14 O1A         1.7190   35.5850   64.6380 O.co2     1 SUB1       -0.500
     15 O2A         3.7290   36.4700   63.4160 O.co2     1 SUB1       -0.500
     16 O3A         3.8070   34.1810   63.8480 O.co2     1 SUB1       -0.500
     17 O5'         3.8250   35.7000   65.7240 O.3       1 SUB1        0.000
     18 C5'         3.2130   35.0970   66.9810 C.3       1 SUB1        0.000
     19 C4'         3.5010   35.9360   68.2150 C.3       1 SUB1        0.000
     20 O4'         4.9240   36.1220   68.3030 O.3       1 SUB1        0.000
     21 C3'         2.8850   37.3660   68.1690 C.3       1 SUB1        0.000
     22 O3'         1.6180   37.4580   68.8110 O.3       1 SUB1        0.000
     23 C2'         3.8330   38.1810   68.9870 C.3       1 SUB1        0.000
     24 O2'         3.6610   37.7870   70.3380 O.3       1 SUB1        0.000
     25 C1'         5.0720   37.5160   68.3870 C.3       1 SUB1        0.000
     26 N9          5.9950   38.2150   67.5160 N.pl3     1 SUB1        0.000
     27 C8          6.4140   37.8410   66.2710 C.2       1 SUB1        0.000
     28 N7          6.9600   38.8240   65.6160 N.2       1 SUB1        0.000
     29 C5          6.9390   39.9260   66.4650 C.2       1 SUB1        0.000
     30 C6          7.4230   41.2400   66.3670 C.2       1 SUB1        0.000
     31 N6          7.9550   41.7430   65.2280 N.pl3     1 SUB1        0.000
     32 N1          7.3160   41.9930   67.4760 N.2       1 SUB1        0.000
     33 C2          6.8500   41.4750   68.5960 C.2       1 SUB1        0.000
     34 N3          6.3370   40.2610   68.8270 N.2       1 SUB1        0.000
     35 C4          6.4230   39.4910   67.7140 C.2       1 SUB1        0.000
@<TRIPOS>BOND
     1   18    1 1  
     2   18    2 1  
     3   19    3 1  
     4   21    4 1  
     5   22    5 1  
     6   23    6 1  
     7   24    7 1  
     8   25    8 1  
     9   27    9 1  
    10   31   10 1  
    11   31   11 1  
    12   33   12 1  
    13   13   14 ar 
    14   13   15 ar 
    15   13   16 ar 
    16   13   17 1  
    17   17   18 1  
    18   18   19 1  
    19   19   20 1  
    20   19   21 1  
    21   20   25 1  
    22   21   22 1  
    23   21   23 1  
    24   23   24 1  
    25   23   25 1  
    26   25   26 1  
    27   26   27 1  
    28   26   35 1  
    29   27   28 2  
    30   28   29 1  
    31   29   30 1  
    32   29   35 2  
    33   30   31 1  
    34   30   32 2  
    35   32   33 1  
    36   33   34 2  
    37   34   35 1  
@<TRIPOS>SUBSTRUCTURE
     1 SUB1        1 GROUP

