### Name: 2dri_ligand
### Creating user name: arthur
### Creation time: Tue Nov 27 11:30:22 2001


@<TRIPOS>MOLECULE
2dri_ligand
   20    20     1     0     0
SMALL
USER_CHARGES


@<TRIPOS>ATOM
      1 C1         50.1440   33.6000   44.1560 C.3       1 SUB1        0.000
      2 C2         49.4580   33.0880   45.4190 C.3       1 SUB1        0.000
      3 C3         49.0810   34.2650   46.3280 C.3       1 SUB1        0.000
      4 C4         50.3330   35.1100   46.6080 C.3       1 SUB1        0.000
      5 C5         50.9730   35.5300   45.2930 C.3       1 SUB1        0.000
      6 O1         50.5540   32.5410   43.3290 O.3       1 SUB1        0.000
      7 O2         48.3010   32.3610   45.0800 O.3       1 SUB1        0.000
      8 O3         48.0780   35.0500   45.6860 O.3       1 SUB1        0.000
      9 O4         50.0130   36.2510   47.3700 O.3       1 SUB1        0.000
     10 O5         51.2830   34.3700   44.5110 O.3       1 SUB1        0.000
     11 H1         49.4610   34.2590   43.5920 H         1 SUB1        0.000
     12 H2         50.1640   32.4380   45.9510 H         1 SUB1        0.000
     13 H3         48.6940   33.8650   47.2750 H         1 SUB1        0.000
     14 H4         51.0510   34.4910   47.1580 H         1 SUB1        0.000
     15 H51        51.9020   36.0840   45.4820 H         1 SUB1        0.000
     16 H52        50.2840   36.1670   44.7210 H         1 SUB1        0.000
     17 HO1        51.4810   32.3580   43.4890 H         1 SUB1        0.000
     18 HO2        48.3350   32.1350   44.1390 H         1 SUB1        0.000
     19 HO3        47.5710   34.4870   45.0770 H         1 SUB1        0.000
     20 HO4        49.6320   35.9700   48.2090 H         1 SUB1        0.000
@<TRIPOS>BOND
     1    1    2 1  
     2    1    6 1  
     3    1   10 1  
     4    1   11 1  
     5    2    3 1  
     6    2    7 1  
     7    2   12 1  
     8    3    4 1  
     9    3    8 1  
    10    3   13 1  
    11    4    5 1  
    12    4    9 1  
    13    4   14 1  
    14    5   10 1  
    15    5   15 1  
    16    5   16 1  
    17    6   17 1  
    18    7   18 1  
    19    8   19 1  
    20    9   20 1  
@<TRIPOS>SUBSTRUCTURE
     1 SUB1        1 GROUP

