### Name: 2er6_ligand
### Creating user name: arthur
### Creation time: Tue Nov 27 11:30:23 2001


@<TRIPOS>MOLECULE
2er6_ligand
  127   129     1     0     0
SMALL
USER_CHARGES


@<TRIPOS>ATOM
      1 HA         32.1171   -5.2078   -4.8140 H         1 SUB1        0.000
      2 HB2        31.0106   -7.0360   -5.6022 H         1 SUB1        0.000
      3 HB1        32.5243   -7.9962   -5.4877 H         1 SUB1        0.000
      4 HG1        32.7047   -7.9839   -7.7622 H         1 SUB1        0.000
      5 HG2        31.1901   -7.0250   -7.8768 H         1 SUB1        0.000
      6 HD1        33.9058   -6.1658   -8.3506 H         1 SUB1        0.000
      7 HD2        32.3898   -5.2113   -8.4812 H         1 SUB1        0.000
      8 H          32.7253   -6.0924   -2.9688 H         1 SUB1        0.000
      9 HA         35.4463   -7.1822   -2.7344 H         1 SUB1        0.000
     10 HB         35.8955   -5.5833   -0.8430 H         1 SUB1        0.000
     11 HG1        34.7074   -3.5901   -1.0926 H         1 SUB1        0.000
     12 HG22       36.0382   -3.5730   -2.7208 H         1 SUB1        0.000
     13 HG21       35.8460   -5.0008   -3.7936 H         1 SUB1        0.000
     14 HG23       37.2131   -4.9288   -2.6307 H         1 SUB1        0.000
     15 H          35.8132   -8.3934   -0.9024 H         1 SUB1        0.000
     16 HA         33.3521   -9.3689    0.5162 H         1 SUB1        0.000
     17 HB2        34.1325  -11.6878    0.2515 H         1 SUB1        0.000
     18 HB1        35.5858  -11.1245   -0.6413 H         1 SUB1        0.000
     19 HG2        34.2024  -10.3406   -2.4875 H         1 SUB1        0.000
     20 HG1        32.7055  -10.7471   -1.5816 H         1 SUB1        0.000
     21 H          34.4912   -7.8140    1.9397 H         1 SUB1        0.000
     22 HA         36.8660   -8.8422    3.3830 H         1 SUB1        0.000
     23 HB2        36.7304   -6.7225    4.6261 H         1 SUB1        0.000
     24 HB1        35.1634   -6.3414    3.8351 H         1 SUB1        0.000
     25 HD1        35.9218   -4.2487    2.8520 H         1 SUB1        0.000
     26 HD2        37.9976   -7.9252    2.0235 H         1 SUB1        0.000
     27 HE1        37.1323   -3.1448    0.9855 H         1 SUB1        0.000
     28 HE2        39.2082   -6.8213    0.1570 H         1 SUB1        0.000
     29 HZ         38.7749   -4.4313   -0.3631 H         1 SUB1        0.000
     30 H          34.0778  -10.5493    4.2005 H         1 SUB1        0.000
     31 HA         35.1599  -10.7203    6.5446 H         1 SUB1        0.000
     32 HB2        33.2956  -12.0515    5.6761 H         1 SUB1        0.000
     33 HB1        34.5355  -13.0921    6.4548 H         1 SUB1        0.000
     34 HD1        33.1937  -11.9452    3.1550 H         1 SUB1        0.000
     35 HD2        35.6263  -14.8240    5.2295 H         1 SUB1        0.000
     36 HE1        33.3116  -13.3289    1.0962 H         1 SUB1        0.000
     37 HE2        35.7435  -16.2098    3.1708 H         1 SUB1        0.000
     38 HZ         34.5877  -15.4606    1.1031 H         1 SUB1        0.000
     39 H          36.7082  -11.6559    7.5351 H         1 SUB1        0.000
     40 HA         39.3390  -11.8825    6.3723 H         1 SUB1        0.000
     41 HB2        38.7378  -13.2428    8.9705 H         1 SUB1        0.000
     42 HB1        38.2994  -11.5023    8.9018 H         1 SUB1        0.000
     43 HG2        40.4702  -10.8123    8.8086 H         1 SUB1        0.000
     44 HG1        41.0057  -12.2508    7.8756 H         1 SUB1        0.000
     45 HD2        40.1875  -13.1723   10.4509 H         1 SUB1        0.000
     46 HD1        41.2118  -11.7194   10.7079 H         1 SUB1        0.000
     47 HE         42.6473  -13.2283    8.8657 H         1 SUB1        0.000
     48 HH11       41.2413  -13.8649   12.0960 H         1 SUB1        0.000
     49 HH12       42.4968  -15.0604   12.5170 H         1 SUB1        0.000
     50 HH21       44.2796  -14.8522    9.5457 H         1 SUB1        0.000
     51 HH22       44.1095  -15.5845   11.1636 H         1 SUB1        0.000
     52 H          40.3602  -13.6460    5.7174 H         1 SUB1        0.000
     53 HA         39.2958  -16.3504    6.3966 H         1 SUB1        0.000
     54 HB2        40.4044  -16.6106    3.8296 H         1 SUB1        0.000
     55 HB1        39.4253  -15.1067    3.7505 H         1 SUB1        0.000
     56 HG2        37.4309  -16.2276    4.2912 H         1 SUB1        0.000
     57 HG1        38.2996  -17.6506    4.9596 H         1 SUB1        0.000
     58 ****       34.2935   -5.1350   -6.4761 H         1 SUB1        0.000
     59 ****       32.8898   -4.2817   -6.5812 H         1 SUB1        0.000
     60 ****       34.0994   -8.4845    4.6471 H         1 SUB1        0.000
     61 ****       35.6251   -8.6701    5.5770 H         1 SUB1        0.000
     62 N          33.2910   -5.2060   -6.5530 N.4       1 SUB1        1.000
     63 CA         32.8050   -5.8600   -5.3720 C.3       1 SUB1        0.000
     64 C          33.9550   -6.2230   -4.5050 C.2       1 SUB1        0.000
     65 O          35.0930   -6.4100   -5.0360 O.2       1 SUB1        0.000
     66 CB         32.0700   -7.0810   -5.8950 C.3       1 SUB1        0.000
     67 CG         32.1920   -7.0710   -7.4250 C.3       1 SUB1        0.000
     68 CD         32.9830   -5.8700   -7.8300 C.3       1 SUB1        0.000
     69 N          33.6640   -6.2890   -3.2520 N.am      1 SUB1        0.000
     70 CA         34.6320   -6.6340   -2.2380 C.3       1 SUB1        0.000
     71 C          33.9930   -7.6640   -1.2870 C.2       1 SUB1        0.000
     72 O          32.7650   -7.8040   -1.2290 O.2       1 SUB1        0.000
     73 CB         35.2880   -5.3470   -1.7290 C.3       1 SUB1        0.000
     74 OG1        34.2910   -4.3840   -1.4070 O.3       1 SUB1        0.000
     75 CG2        36.1580   -4.6640   -2.7940 C.3       1 SUB1        0.000
     76 N          34.8370   -8.4880   -0.7070 N.am      1 SUB1        0.000
     77 CA         34.3970   -9.5500    0.2240 C.3       1 SUB1        0.000
     78 C          35.2890   -9.5610    1.4610 C.2       1 SUB1        0.000
     79 O          36.1040  -10.4760    1.6510 O.2       1 SUB1        0.000
     80 CB         34.5220  -10.9280   -0.4420 C.3       1 SUB1        0.000
     81 CG         33.7520  -11.0340   -1.7620 C.3       1 SUB1        0.000
     82 CD         33.7760  -12.4480   -2.3570 C.2       1 SUB1        0.000
     83 OE1        32.7840  -13.2490   -2.1580 O.co2     1 SUB1       -0.500
     84 OE2        34.7900  -12.8380   -3.0540 O.co2     1 SUB1       -0.500
     85 N          35.1440   -8.5190    2.2170 N.am      1 SUB1        0.000
     86 CA         35.8970   -8.3280    3.4640 C.3       1 SUB1        0.000
     87 C          35.1120   -8.9140    4.6350 C.3       1 SUB1        0.000
     88 CB         36.1370   -6.8370    3.7070 C.3       1 SUB1        0.000
     89 CG         36.8830   -6.1570    2.5570 C.ar      1 SUB1        0.000
     90 CD1        36.6390   -4.8100    2.2640 C.ar      1 SUB1        0.000
     91 CD2        37.8090   -6.8820    1.7970 C.ar      1 SUB1        0.000
     92 CE1        37.3210   -4.1880    1.2120 C.ar      1 SUB1        0.000
     93 CE2        38.4910   -6.2600    0.7450 C.ar      1 SUB1        0.000
     94 CZ         38.2470   -4.9130    0.4520 C.ar      1 SUB1        0.000
     95 N          35.0220  -10.3550    4.4950 N.4       1 SUB1        1.000
     96 CA         35.2990  -11.2700    5.6020 C.3       1 SUB1        0.000
     97 C          36.7430  -11.7550    5.5460 C.2       1 SUB1        0.000
     98 O          37.3100  -11.9480    4.4600 O.2       1 SUB1        0.000
     99 CB         34.3180  -12.4480    5.5900 C.3       1 SUB1        0.000
    100 CG         34.4040  -13.2950    4.3210 C.ar      1 SUB1        0.000
    101 CD1        33.7510  -12.8750    3.1580 C.ar      1 SUB1        0.000
    102 CD2        35.1220  -14.4980    4.3270 C.ar      1 SUB1        0.000
    103 CE1        33.8170  -13.6550    1.9980 C.ar      1 SUB1        0.000
    104 CE2        35.1880  -15.2790    3.1670 C.ar      1 SUB1        0.000
    105 CZ         34.5360  -14.8570    2.0020 C.ar      1 SUB1        0.000
    106 N          37.2650  -11.9090    6.7440 N.am      1 SUB1        0.000
    107 CA         38.6080  -12.4270    6.9880 C.3       1 SUB1        0.000
    108 C          38.6470  -13.9200    6.6700 C.2       1 SUB1        0.000
    109 O          37.7460  -14.6790    7.0570 O.2       1 SUB1        0.000
    110 CB         38.9430  -12.2840    8.4720 C.3       1 SUB1        0.000
    111 CG         40.4000  -11.9070    8.7270 C.3       1 SUB1        0.000
    112 CD         40.9600  -12.5280   10.0060 C.3       1 SUB1        0.000
    113 NE         42.1640  -13.3350    9.7690 N.pl3     1 SUB1        0.000
    114 CZ         42.6720  -14.2010   10.6550 C.cat     1 SUB1        0.000
    115 NH1        42.0920  -14.3900   11.8480 N.pl3     1 SUB1        0.500
    116 NH2        43.7720  -14.9360   10.4380 N.pl3     1 SUB1        0.500
    117 N          39.6930  -14.3230    6.0280 N.am      1 SUB1        0.000
    118 CA         39.9350  -15.7430    5.7390 C.3       1 SUB1        0.000
    119 C          41.3950  -16.0920    6.0230 C.2       1 SUB1        0.000
    120 O          41.7550  -16.4550    7.1520 O.co2     1 SUB1       -0.500
    121 CB         39.5730  -16.0550    4.2880 C.3       1 SUB1        0.000
    122 CG         38.2990  -16.8910    4.1640 C.3       1 SUB1        0.000
    123 CD         38.1770  -17.5990    2.8150 C.2       1 SUB1        0.000
    124 OE1        38.0340  -18.8800    2.7690 O.co2     1 SUB1       -0.500
    125 OE2        38.2160  -16.9150    1.7220 O.co2     1 SUB1       -0.500
    126 OXT        42.2380  -16.0160    5.1160 O.co2     1 SUB1       -0.500
    127 ****       35.6622  -10.6054    3.7577 H         1 SUB1        0.000
@<TRIPOS>BOND
     1   63    1 1  
     2   66    2 1  
     3   66    3 1  
     4   67    4 1  
     5   67    5 1  
     6   68    6 1  
     7   68    7 1  
     8   69    8 1  
     9   70    9 1  
    10   73   10 1  
    11   74   11 1  
    12   75   12 1  
    13   75   13 1  
    14   75   14 1  
    15   76   15 1  
    16   77   16 1  
    17   80   17 1  
    18   80   18 1  
    19   81   19 1  
    20   81   20 1  
    21   85   21 1  
    22   86   22 1  
    23   88   23 1  
    24   88   24 1  
    25   90   25 1  
    26   91   26 1  
    27   92   27 1  
    28   93   28 1  
    29   94   29 1  
    30   95   30 1  
    31   96   31 1  
    32   99   32 1  
    33   99   33 1  
    34  101   34 1  
    35  102   35 1  
    36  103   36 1  
    37  104   37 1  
    38  105   38 1  
    39  106   39 1  
    40  107   40 1  
    41  110   41 1  
    42  110   42 1  
    43  111   43 1  
    44  111   44 1  
    45  112   45 1  
    46  112   46 1  
    47  113   47 1  
    48  115   48 1  
    49  115   49 1  
    50  116   50 1  
    51  116   51 1  
    52  117   52 1  
    53  118   53 1  
    54  121   54 1  
    55  121   55 1  
    56  122   56 1  
    57  122   57 1  
    58   62   58 1  
    59   62   59 1  
    60   87   60 1  
    61   87   61 1  
    62   63   64 1  
    63   63   66 1  
    64   63   62 1  
    65   62   68 1  
    66   68   67 1  
    67   67   66 1  
    68   64   65 2  
    69   70   69 1  
    70   70   73 1  
    71   70   71 1  
    72   71   72 2  
    73   73   75 1  
    74   73   74 1  
    75   64   69 am 
    76   77   76 1  
    77   77   80 1  
    78   77   78 1  
    79   78   79 2  
    80   80   81 1  
    81   81   82 1  
    82   82   84 ar 
    83   82   83 ar 
    84   71   76 am 
    85   86   85 1  
    86   86   88 1  
    87   86   87 1  
    88   88   89 1  
    89   89   90 ar 
    90   89   91 ar 
    91   91   93 ar 
    92   93   94 ar 
    93   94   92 ar 
    94   92   90 ar 
    95   78   85 am 
    96   96   95 1  
    97   96   99 1  
    98   96   97 1  
    99   97   98 2  
   100   99  100 1  
   101  100  101 ar 
   102  100  102 ar 
   103  102  104 ar 
   104  104  105 ar 
   105  105  103 ar 
   106  103  101 ar 
   107   87   95 1  
   108  107  106 1  
   109  107  110 1  
   110  107  108 1  
   111  108  109 2  
   112  110  111 1  
   113  111  112 1  
   114  112  113 1  
   115  113  114 ar 
   116  114  116 ar 
   117  114  115 ar 
   118   97  106 am 
   119  118  117 1  
   120  118  121 1  
   121  118  119 1  
   122  119  120 ar 
   123  119  126 ar 
   124  121  122 1  
   125  122  123 1  
   126  123  125 ar 
   127  123  124 ar 
   128  108  117 am 
   129   95  127 1  
@<TRIPOS>SUBSTRUCTURE
     1 SUB1        1 GROUP

