### Name: 2gbp_ligand
### Creating user name: arthur
### Creation time: Tue Nov 27 11:30:23 2001


@<TRIPOS>MOLECULE
2gbp_ligand
   24    24     1     0     0
SMALL
USER_CHARGES


@<TRIPOS>ATOM
      1 C1         35.8840   30.8950   49.1200 C.3       1 SUB1        0.000
      2 C2         36.1770   29.8530   50.1240 C.3       1 SUB1        0.000
      3 C3         37.2960   30.2960   51.0740 C.3       1 SUB1        0.000
      4 C4         38.5530   30.4000   50.2590 C.3       1 SUB1        0.000
      5 C5         38.3570   31.2900   49.0440 C.3       1 SUB1        0.000
      6 C6         39.5590   31.2090   48.0820 C.3       1 SUB1        0.000
      7 O1         34.9680   30.3400   48.2340 O.3       1 SUB1        0.000
      8 O2         34.9230   29.7750   50.9100 O.3       1 SUB1        0.000
      9 O3         37.4410   29.2650   52.1130 O.3       1 SUB1        0.000
     10 O4         39.5720   30.9540   51.0860 O.3       1 SUB1        0.000
     11 O5         37.1550   30.8580   48.3640 O.3       1 SUB1        0.000
     12 O6         39.2610   32.0180   46.9200 O.3       1 SUB1        0.000
     13 ****       35.5914   31.8741   49.5270 H         1 SUB1        0.000
     14 ****       36.4300   28.8943   49.6478 H         1 SUB1        0.000
     15 ****       37.0576   31.2665   51.5337 H         1 SUB1        0.000
     16 ****       38.8521   29.3959   49.9238 H         1 SUB1        0.000
     17 ****       38.2376   32.3321   49.3752 H         1 SUB1        0.000
     18 ****       39.7227   30.1649   47.7771 H         1 SUB1        0.000
     19 ****       40.4619   31.5913   48.5806 H         1 SUB1        0.000
     20 ****       34.7478   30.9779   47.5653 H         1 SUB1        0.000
     21 ****       34.2108   29.5017   50.3437 H         1 SUB1        0.000
     22 ****       36.6391   29.2110   52.6195 H         1 SUB1        0.000
     23 ****       39.6978   30.4001   51.8475 H         1 SUB1        0.000
     24 ****       39.9910   31.9816   46.3131 H         1 SUB1        0.000
@<TRIPOS>BOND
     1    1    2 1  
     2    1    7 1  
     3    1   11 1  
     4    2    3 1  
     5    2    8 1  
     6    3    4 1  
     7    3    9 1  
     8    4    5 1  
     9    4   10 1  
    10    5    6 1  
    11    5   11 1  
    12    6   12 1  
    13    1   13 1  
    14    2   14 1  
    15    3   15 1  
    16    4   16 1  
    17    5   17 1  
    18    6   18 1  
    19    6   19 1  
    20    7   20 1  
    21    8   21 1  
    22    9   22 1  
    23   10   23 1  
    24   12   24 1  
@<TRIPOS>SUBSTRUCTURE
     1 SUB1        1 GROUP

