### Name: 2ifb_ligand
### Creating user name: arthur
### Creation time: Tue Nov 27 11:30:23 2001


@<TRIPOS>MOLECULE
2ifb_ligand
   50    49     1     0     0
SMALL
USER_CHARGES


@<TRIPOS>ATOM
      1 C1         18.8030    5.4620    7.6090 C.2       1 SUB1        0.000
      2 O1         17.9020    4.6540    7.7630 O.2       1 SUB1        0.000
      3 O2         18.6630    6.6120    6.9800 O.3       1 SUB1        0.000
      4 C2         20.2170    5.2060    8.1100 C.3       1 SUB1        0.000
      5 C3         20.2340    4.9100    9.5940 C.3       1 SUB1        0.000
      6 C4         20.2980    6.1910   10.4240 C.3       1 SUB1        0.000
      7 C5         19.7850    5.9060   11.8170 C.3       1 SUB1        0.000
      8 C6         20.7240    6.4750   12.8570 C.3       1 SUB1        0.000
      9 C7         21.1350    7.9030   12.5690 C.3       1 SUB1        0.000
     10 C8         21.8350    8.4720   13.7990 C.3       1 SUB1        0.000
     11 C9         22.4270    9.8610   13.6440 C.3       1 SUB1        0.000
     12 CA         23.2060   10.2700   14.8950 C.3       1 SUB1        0.000
     13 CB         23.8190   11.6650   14.8740 C.3       1 SUB1        0.000
     14 CC         24.9500   11.8350   13.8770 C.3       1 SUB1        0.000
     15 CD         26.0980   12.7170   14.3500 C.3       1 SUB1        0.000
     16 CE         27.0700   13.1150   13.2420 C.3       1 SUB1        0.000
     17 CF         28.4970   12.6550   13.5070 C.3       1 SUB1        0.000
     18 CG         29.5550   13.5990   12.9420 C.3       1 SUB1        0.000
     19 ****       20.8318    6.0973    7.9162 H         1 SUB1        0.000
     20 ****       20.6377    4.3456    7.5690 H         1 SUB1        0.000
     21 ****       21.1140    4.2915    9.8243 H         1 SUB1        0.000
     22 ****       19.3193    4.3591    9.8583 H         1 SUB1        0.000
     23 ****       19.6747    6.9658    9.9537 H         1 SUB1        0.000
     24 ****       21.3391    6.5417   10.4799 H         1 SUB1        0.000
     25 ****       19.7064    4.8179   11.9577 H         1 SUB1        0.000
     26 ****       18.7921    6.3640   11.9373 H         1 SUB1        0.000
     27 ****       21.6289    5.8505   12.8906 H         1 SUB1        0.000
     28 ****       20.2218    6.4459   13.8352 H         1 SUB1        0.000
     29 ****       20.2434    8.5050   12.3398 H         1 SUB1        0.000
     30 ****       21.8221    7.9237   11.7103 H         1 SUB1        0.000
     31 ****       22.6516    7.7863   14.0690 H         1 SUB1        0.000
     32 ****       21.1010    8.5084   14.6174 H         1 SUB1        0.000
     33 ****       21.6132   10.5817   13.4759 H         1 SUB1        0.000
     34 ****       23.1069    9.8674   12.7793 H         1 SUB1        0.000
     35 ****       24.0221    9.5459   15.0350 H         1 SUB1        0.000
     36 ****       22.5182   10.2175   15.7519 H         1 SUB1        0.000
     37 ****       24.2094   11.8849   15.8786 H         1 SUB1        0.000
     38 ****       23.0269   12.3856   14.6225 H         1 SUB1        0.000
     39 ****       24.5335   12.2793   12.9610 H         1 SUB1        0.000
     40 ****       25.3567   10.8387   13.6492 H         1 SUB1        0.000
     41 ****       26.6587   12.1707   15.1227 H         1 SUB1        0.000
     42 ****       25.6737   13.6342   14.7843 H         1 SUB1        0.000
     43 ****       27.0667   14.2111   13.1502 H         1 SUB1        0.000
     44 ****       26.7273   12.6669   12.2977 H         1 SUB1        0.000
     45 ****       28.6343   11.6642   13.0494 H         1 SUB1        0.000
     46 ****       28.6425   12.5799   14.5947 H         1 SUB1        0.000
     47 ****       30.5566   13.2056   13.1698 H         1 SUB1        0.000
     48 ****       29.4396   14.5937   13.3972 H         1 SUB1        0.000
     49 ****       29.4314   13.6780   11.8518 H         1 SUB1        0.000
     50 ****       17.7670    6.7000    6.6768 H         1 SUB1        0.000
@<TRIPOS>BOND
     1    1    2 2  
     2    1    3 1  
     3    1    4 1  
     4    4    5 1  
     5    5    6 1  
     6    6    7 1  
     7    7    8 1  
     8    8    9 1  
     9    9   10 1  
    10   10   11 1  
    11   11   12 1  
    12   12   13 1  
    13   13   14 1  
    14   14   15 1  
    15   15   16 1  
    16   16   17 1  
    17   17   18 1  
    18    4   19 1  
    19    4   20 1  
    20    5   21 1  
    21    5   22 1  
    22    6   23 1  
    23    6   24 1  
    24    7   25 1  
    25    7   26 1  
    26    8   27 1  
    27    8   28 1  
    28    9   29 1  
    29    9   30 1  
    30   10   31 1  
    31   10   32 1  
    32   11   33 1  
    33   11   34 1  
    34   12   35 1  
    35   12   36 1  
    36   13   37 1  
    37   13   38 1  
    38   14   39 1  
    39   14   40 1  
    40   15   41 1  
    41   15   42 1  
    42   16   43 1  
    43   16   44 1  
    44   17   45 1  
    45   17   46 1  
    46   18   47 1  
    47   18   48 1  
    48   18   49 1  
    49    3   50 1  
@<TRIPOS>SUBSTRUCTURE
     1 SUB1        1 GROUP

