### Name: 2phh_ligand
### Creating user name: arthur
### Creation time: Tue Nov 27 11:30:30 2001


@<TRIPOS>MOLECULE
2phh_ligand
   15    15     1     0     0
SMALL
USER_CHARGES


@<TRIPOS>ATOM
      1 H1         15.4621   95.3805   44.8690 H         1 SUB1        0.000
      2 H2         15.3687   92.9193   44.7804 H         1 SUB1        0.000
      3 H3         17.5919   90.8879   46.5693 H         1 SUB1        0.000
      4 H4         18.7725   92.7077   47.3894 H         1 SUB1        0.000
      5 H5         18.9524   95.1353   47.3436 H         1 SUB1        0.000
      6 C1'        17.2700   96.9110   46.0600 C.2       1 SUB1        0.000
      7 O1'        16.4430   97.5730   45.4250 O.co2     1 SUB1       -0.500
      8 O2'        18.2000   97.5810   46.6980 O.co2     1 SUB1       -0.500
      9 C1         17.2130   95.4410   46.1240 C.ar      1 SUB1        0.000
     10 C2         16.2010   94.7940   45.4030 C.ar      1 SUB1        0.000
     11 C3         16.1370   93.4100   45.3670 C.ar      1 SUB1        0.000
     12 C4         17.0540   92.6510   46.0800 C.ar      1 SUB1        0.000
     13 O4         16.9090   91.2920   46.0470 O.3       1 SUB1        0.000
     14 C5         18.0620   93.2920   46.8160 C.ar      1 SUB1        0.000
     15 C6         18.1440   94.6520   46.8070 C.ar      1 SUB1        0.000
@<TRIPOS>BOND
     1   10    1 1  
     2   11    2 1  
     3   13    3 1  
     4   14    4 1  
     5   15    5 1  
     6    6    7 ar 
     7    6    8 ar 
     8    6    9 1  
     9    9   10 ar 
    10    9   15 ar 
    11   10   11 ar 
    12   11   12 ar 
    13   12   13 1  
    14   12   14 ar 
    15   14   15 ar 
@<TRIPOS>SUBSTRUCTURE
     1 SUB1        1 GROUP

