### Name: 2qwf_ligand
### Creating user name: arthur
### Creation time: Tue Nov 27 11:30:24 2001


@<TRIPOS>MOLECULE
2qwf_ligand
   45    45     1     0     0
SMALL
USER_CHARGES


@<TRIPOS>ATOM
      1 C1         23.6310   19.8290   64.8900 C.2       1 SUB1        0.000
      2 O1A        24.2200   20.8930   65.1410 O.co2     1 SUB1       -0.500
      3 O1B        22.4040   19.6700   65.1150 O.co2     1 SUB1       -0.500
      4 C2         24.4300   18.8790   64.2200 C.2       1 SUB1        0.000
      5 C3         23.9670   17.6970   63.9260 C.2       1 SUB1        0.000
      6 C4         24.5920   16.7300   62.8210 C.2       1 SUB1        0.000
      7 C5         25.9830   16.8760   62.7860 C.2       1 SUB1        0.000
      8 N5         26.5920   16.1770   61.6790 N.am      1 SUB1        0.000
      9 C10        27.0770   14.9490   61.8370 C.2       1 SUB1        0.000
     10 O10        27.0570   14.3540   62.9160 O.2       1 SUB1        0.000
     11 C11        27.5700   14.2900   60.5590 C.3       1 SUB1        0.000
     12 C6         26.2770   18.3670   62.8270 C.3       1 SUB1        0.000
     13 O6         25.7390   18.9350   63.9840 O.3       1 SUB1        0.000
     14 C7         27.7810   18.4030   62.9220 C.2       1 SUB1        0.000
     15 O7         28.3290   18.0560   63.9760 O.2       1 SUB1        0.000
     16 N8         28.4790   18.7320   61.8210 N.am      1 SUB1        0.000
     17 C81        27.9820   19.0860   60.4800 C.3       1 SUB1        0.000
     18 C9         29.9520   18.6900   62.0060 C.3       1 SUB1        0.000
     19 C91        30.4490   17.2880   62.4430 C.3       1 SUB1        0.000
     20 C92        31.9450   17.1210   62.3240 C.3       1 SUB1        0.000
     21 NE         24.2360   15.2910   62.9360 N.pl3     1 SUB1        0.000
     22 CZ         23.8620   14.3350   61.9870 C.cat     1 SUB1        0.000
     23 NH1        23.8420   14.6590   60.6990 N.pl3     1 SUB1        0.500
     24 NH2        23.6180   13.0700   62.3570 N.pl3     1 SUB1        0.500
     25 H1         23.0932   17.3447   64.4721 H         1 SUB1        0.000
     26 H2         26.6496   16.6208   60.7847 H         1 SUB1        0.000
     27 H3         27.9504   13.2837   60.7885 H         1 SUB1        0.000
     28 H4         28.3771   14.8961   60.1217 H         1 SUB1        0.000
     29 H5         26.7393   14.2132   59.8420 H         1 SUB1        0.000
     30 H6         25.9040   18.8840   61.9306 H         1 SUB1        0.000
     31 H7         28.8340   19.2989   59.8176 H         1 SUB1        0.000
     32 H8         27.3405   19.9768   60.5500 H         1 SUB1        0.000
     33 H9         27.4005   18.2466   60.0711 H         1 SUB1        0.000
     34 H10        30.2328   19.4216   62.7780 H         1 SUB1        0.000
     35 H11        30.4360   18.9565   61.0548 H         1 SUB1        0.000
     36 H12        29.9618   16.5318   61.8099 H         1 SUB1        0.000
     37 H13        30.1622   17.1274   63.4927 H         1 SUB1        0.000
     38 H14        32.2279   16.1088   62.6486 H         1 SUB1        0.000
     39 H15        32.4486   17.8640   62.9598 H         1 SUB1        0.000
     40 H16        32.2483   17.2685   61.2770 H         1 SUB1        0.000
     41 H17        24.2718   14.9291   63.8997 H         1 SUB1        0.000
     42 H18        23.5672   13.9583   59.9959 H         1 SUB1        0.000
     43 H19        24.1013   15.6110   60.4033 H         1 SUB1        0.000
     44 H20        23.6322   12.8133   63.3544 H         1 SUB1        0.000
     45 H21        23.4163   12.3546   61.6439 H         1 SUB1        0.000
@<TRIPOS>BOND
     1    1    4 2  
     2    1    3 ar 
     3    1    2 ar 
     4    4   13 1  
     5    4    5 2  
     6    5    6 1  
     7    6   21 1  
     8    6    7 2  
     9    7   12 1  
    10    7    8 am 
    11    8    9 am 
    12    9   11 1  
    13    9   10 2  
    14   12   14 1  
    15   12   13 1  
    16   14   16 am 
    17   14   15 2  
    18   16   18 1  
    19   16   17 1  
    20   18   19 1  
    21   19   20 1  
    22   21   22 ar 
    23   22   24 ar 
    24   22   23 ar 
    25    5   25 1  
    26    8   26 1  
    27   11   27 1  
    28   11   28 1  
    29   11   29 1  
    30   12   30 1  
    31   17   31 1  
    32   17   32 1  
    33   17   33 1  
    34   18   34 1  
    35   18   35 1  
    36   19   36 1  
    37   19   37 1  
    38   20   38 1  
    39   20   39 1  
    40   20   40 1  
    41   21   41 1  
    42   23   42 1  
    43   23   43 1  
    44   24   44 1  
    45   24   45 1  
@<TRIPOS>SUBSTRUCTURE
     1 SUB1        1 GROUP

