### Name: 2r04_ligand
### Creating user name: arthur
### Creation time: Tue Nov 27 11:30:30 2001


@<TRIPOS>MOLECULE
2r04_ligand
   51    53     1     0     0
SMALL
USER_CHARGES


@<TRIPOS>ATOM
      1 O1         37.5580    5.9660  126.2100 O.3       1 SUB1        0.000
      2 N2         36.9980    7.1010  126.8290 N.2       1 SUB1        0.000
      3 C3         36.3550    7.7240  125.8980 C.2       1 SUB1        0.000
      4 C31        35.6370    8.9850  126.2180 C.3       1 SUB1        0.000
      5 C4         36.4510    7.0620  124.6750 C.2       1 SUB1        0.000
      6 C5         37.1980    5.9950  124.9170 C.2       1 SUB1        0.000
      7 C1C        37.7100    4.8890  124.1530 C.3       1 SUB1        0.000
      8 C2C        38.6450    4.0540  124.9730 C.3       1 SUB1        0.000
      9 C3C        39.0330    2.8550  124.2020 C.3       1 SUB1        0.000
     10 C4C        40.4790    2.6510  124.0840 C.3       1 SUB1        0.000
     11 C5C        40.8930    1.3380  124.6750 C.3       1 SUB1        0.000
     12 C6C        40.9820    0.2860  123.6300 C.3       1 SUB1        0.000
     13 C7C        42.3720    0.0100  123.1900 C.3       1 SUB1        0.000
     14 O1B        42.4210   -1.4180  123.0290 O.3       1 SUB1        0.000
     15 C1B        43.6060   -2.0550  122.8330 C.ar      1 SUB1        0.000
     16 C2B        43.8880   -2.8800  121.7450 C.ar      1 SUB1        0.000
     17 C3B        45.1260   -3.4670  121.6490 C.ar      1 SUB1        0.000
     18 C4B        46.0900   -3.2490  122.6250 C.ar      1 SUB1        0.000
     19 C5B        45.7870   -2.4260  123.7190 C.ar      1 SUB1        0.000
     20 C6B        44.5560   -1.8380  123.8180 C.ar      1 SUB1        0.000
     21 C2A        47.4090   -3.8530  122.5160 C.2       1 SUB1        0.000
     22 N3A        47.8620   -4.6910  121.4500 N.2       1 SUB1        0.000
     23 C4A        49.1440   -5.1060  121.6180 C.3       1 SUB1        0.000
     24 C5A        49.4350   -4.4130  122.9380 C.3       1 SUB1        0.000
     25 O1A        48.3460   -3.6950  123.3880 O.3       1 SUB1        0.000
     26 ****       35.1510    9.3708  125.3097 H         1 SUB1        0.000
     27 ****       36.3537    9.7296  126.5948 H         1 SUB1        0.000
     28 ****       34.8748    8.7881  126.9863 H         1 SUB1        0.000
     29 ****       36.0076    7.3581  123.7254 H         1 SUB1        0.000
     30 ****       38.2497    5.2770  123.2766 H         1 SUB1        0.000
     31 ****       36.8692    4.2635  123.8186 H         1 SUB1        0.000
     32 ****       38.1438    3.7466  125.9027 H         1 SUB1        0.000
     33 ****       39.5431    4.6403  125.2171 H         1 SUB1        0.000
     34 ****       38.6152    2.9479  123.1887 H         1 SUB1        0.000
     35 ****       38.6008    1.9731  124.6974 H         1 SUB1        0.000
     36 ****       40.9998    3.4624  124.6134 H         1 SUB1        0.000
     37 ****       40.7579    2.6690  123.0201 H         1 SUB1        0.000
     38 ****       40.1521    1.0337  125.4290 H         1 SUB1        0.000
     39 ****       41.8768    1.4534  125.1533 H         1 SUB1        0.000
     40 ****       40.3978    0.6114  122.7566 H         1 SUB1        0.000
     41 ****       40.5526   -0.6432  124.0328 H         1 SUB1        0.000
     42 ****       43.0939    0.3405  123.9513 H         1 SUB1        0.000
     43 ****       42.5862    0.5164  122.2373 H         1 SUB1        0.000
     44 ****       43.1378   -3.0563  120.9826 H         1 SUB1        0.000
     45 ****       45.3529   -4.1064  120.8036 H         1 SUB1        0.000
     46 ****       46.5308   -2.2552  124.4889 H         1 SUB1        0.000
     47 ****       44.3241   -1.2033  124.6656 H         1 SUB1        0.000
     48 ****       49.8028   -4.7532  120.8109 H         1 SUB1        0.000
     49 ****       49.2178   -6.2005  121.6996 H         1 SUB1        0.000
     50 ****       50.2830   -3.7259  122.8007 H         1 SUB1        0.000
     51 ****       49.6964   -5.1726  123.6895 H         1 SUB1        0.000
@<TRIPOS>BOND
     1    1    2 1  
     2    1    6 1  
     3    2    3 2  
     4    3    4 1  
     5    3    5 1  
     6    5    6 2  
     7    6    7 1  
     8    7    8 1  
     9    8    9 1  
    10    9   10 1  
    11   10   11 1  
    12   11   12 1  
    13   12   13 1  
    14   13   14 1  
    15   14   15 1  
    16   15   16 ar 
    17   15   20 ar 
    18   16   17 ar 
    19   17   18 ar 
    20   18   19 ar 
    21   18   21 1  
    22   19   20 ar 
    23   21   22 2  
    24   21   25 1  
    25   22   23 1  
    26   23   24 1  
    27   24   25 1  
    28    4   26 1  
    29    4   27 1  
    30    4   28 1  
    31    5   29 1  
    32    7   30 1  
    33    7   31 1  
    34    8   32 1  
    35    8   33 1  
    36    9   34 1  
    37    9   35 1  
    38   10   36 1  
    39   10   37 1  
    40   11   38 1  
    41   11   39 1  
    42   12   40 1  
    43   12   41 1  
    44   13   42 1  
    45   13   43 1  
    46   16   44 1  
    47   17   45 1  
    48   19   46 1  
    49   20   47 1  
    50   23   48 1  
    51   23   49 1  
    52   24   50 1  
    53   24   51 1  
@<TRIPOS>SUBSTRUCTURE
     1 SUB1        1 GROUP

