### Name: 2sns_ligand
### Creating user name: arthur
### Creation time: Tue Nov 27 11:30:24 2001


@<TRIPOS>MOLECULE
2sns_ligand
   37    38     1     0     0
SMALL
USER_CHARGES


@<TRIPOS>ATOM
      1 H1          1.9591   20.1538   26.3280 H         1 SUB1        0.000
      2 H2          3.4288   18.2164   21.2381 H         1 SUB1        0.000
      3 H3          3.5309   19.9749   21.5901 H         1 SUB1        0.000
      4 H4          1.9271   19.1758   21.4637 H         1 SUB1        0.000
      5 H5          4.2240   16.9919   23.0004 H         1 SUB1        0.000
      6 H6          5.0063   16.3667   26.5443 H         1 SUB1        0.000
      7 H7          2.3433   15.3970   25.3710 H         1 SUB1        0.000
      8 H8          3.0613   15.0246   26.9749 H         1 SUB1        0.000
      9 H9          3.2079   13.2280   24.7069 H         1 SUB1        0.000
     10 H10         5.9728   13.6637   24.5323 H         1 SUB1        0.000
     11 H11         3.5755   14.5374   22.7644 H         1 SUB1        0.000
     12 H12         4.5784   13.0593   22.5745 H         1 SUB1        0.000
     13 N1          3.7400   17.4900   25.1500 N.pl3     1 SUB1        0.000
     14 C2          3.0800   18.4300   25.9800 C.2       1 SUB1        0.000
     15 O2          3.1000   18.2500   27.2800 O.2       1 SUB1        0.000
     16 N3          2.4100   19.5400   25.6800 N.am      1 SUB1        0.000
     17 C4          2.4600   19.7100   24.0900 C.2       1 SUB1        0.000
     18 O4          1.7700   20.8200   23.6100 O.2       1 SUB1        0.000
     19 C5          3.0000   18.7700   23.1800 C.2       1 SUB1        0.000
     20 C5M         2.9700   19.0500   21.7900 C.3       1 SUB1        0.000
     21 C6          3.7100   17.6800   23.6700 C.2       1 SUB1        0.000
     22 C1'         4.4400   16.1800   25.6200 C.3       1 SUB1        0.000
     23 C2'         3.2700   15.1300   25.9000 C.3       1 SUB1        0.000
     24 C3'         3.9600   13.7900   25.2800 C.3       1 SUB1        0.000
     25 C4'         5.0500   14.2400   24.3700 C.3       1 SUB1        0.000
     26 C5'         4.5800   14.1100   22.9000 C.3       1 SUB1        0.000
     27 O4'         5.2500   15.7400   24.7100 O.3       1 SUB1        0.000
     28 O3'         4.4900   12.9400   26.2900 O.3       1 SUB1        0.000
     29 P3'         4.8200   11.5000   26.0100 P.3       1 SUB1        0.000
     30 O13         5.4600   10.6400   27.3100 O.co2     1 SUB1       -0.500
     31 O23         6.0400   11.3000   24.9000 O.co2     1 SUB1       -0.500
     32 O33         3.7100   10.6000   25.3600 O.co2     1 SUB1       -0.500
     33 O5'         5.5400   14.8500   22.2100 O.3       1 SUB1        0.000
     34 P5'         6.2100   13.9900   20.6400 P.3       1 SUB1        0.000
     35 O15         5.1100   14.2900   19.2900 O.co2     1 SUB1       -0.500
     36 O25         7.6600   14.4900   20.3700 O.co2     1 SUB1       -0.500
     37 O35         6.3200   12.5000   21.1400 O.co2     1 SUB1       -0.500
@<TRIPOS>BOND
     1   16    1 1  
     2   20    2 1  
     3   20    3 1  
     4   20    4 1  
     5   21    5 1  
     6   22    6 1  
     7   23    7 1  
     8   23    8 1  
     9   24    9 1  
    10   25   10 1  
    11   26   11 1  
    12   26   12 1  
    13   13   14 1  
    14   13   21 1  
    15   22   13 1  
    16   14   15 2  
    17   14   16 am 
    18   16   17 am 
    19   17   18 2  
    20   19   17 1  
    21   19   20 1  
    22   21   19 2  
    23   23   22 1  
    24   22   27 1  
    25   24   23 1  
    26   25   24 1  
    27   24   28 1  
    28   25   26 1  
    29   27   25 1  
    30   26   33 1  
    31   28   29 1  
    32   29   30 ar 
    33   29   31 ar 
    34   29   32 ar 
    35   33   34 1  
    36   34   35 ar 
    37   34   36 ar 
    38   34   37 ar 
@<TRIPOS>SUBSTRUCTURE
     1 SUB1        1 GROUP

