### Name: 2xim_ligand
### Creating user name: arthur
### Creation time: Tue Nov 27 11:30:24 2001


@<TRIPOS>MOLECULE
2xim_ligand
   20    19     1     0     0
SMALL
USER_CHARGES


@<TRIPOS>ATOM
      1 H1         29.7318   43.2736  172.4145 H         1 SUB1        0.000
      2 H2         32.5134   43.9078  171.6291 H         1 SUB1        0.000
      3 H3         31.4720   41.5396  171.6409 H         1 SUB1        0.000
      4 H4         33.7903   42.1958  170.8582 H         1 SUB1        0.000
      5 H5         34.0801   39.9399  169.5980 H         1 SUB1        0.000
      6 H6         32.3233   39.7232  169.9033 H         1 SUB1        0.000
      7 H7         31.4444   45.2722  170.0590 H         1 SUB1        0.000
      8 H8         29.8149   42.0845  170.0858 H         1 SUB1        0.000
      9 H9         33.1967   43.1606  168.8316 H         1 SUB1        0.000
     10 H10        33.6395   38.9415  171.6382 H         1 SUB1        0.000
     11 C1         30.4380   43.9820  171.9840 C.2       1 SUB1        0.000
     12 C2         31.5880   43.6250  171.1060 C.3       1 SUB1        0.000
     13 C3         31.6710   42.1340  170.7370 C.3       1 SUB1        0.000
     14 C4         33.0430   41.7400  170.1920 C.3       1 SUB1        0.000
     15 C5         33.2380   40.2310  170.2430 C.3       1 SUB1        0.000
     16 O1         30.4050   45.4240  172.1770 O.2       1 SUB1        0.000
     17 O2         31.4980   44.3410  169.8790 O.3       1 SUB1        0.000
     18 O3         30.6700   41.8410  169.7510 O.3       1 SUB1        0.000
     19 O4         33.3190   42.2190  168.8610 O.3       1 SUB1        0.000
     20 O5         33.5130   39.8810  171.5770 O.3       1 SUB1        0.000
@<TRIPOS>BOND
     1   11    1 1  
     2   12    2 1  
     3   13    3 1  
     4   14    4 1  
     5   15    5 1  
     6   15    6 1  
     7   17    7 1  
     8   18    8 1  
     9   19    9 1  
    10   20   10 1  
    11   11   12 1  
    12   11   16 2  
    13   12   13 1  
    14   12   17 1  
    15   13   14 1  
    16   13   18 1  
    17   14   15 1  
    18   14   19 1  
    19   15   20 1  
@<TRIPOS>SUBSTRUCTURE
     1 SUB1        1 GROUP

