### Name: 2xis_ligand
### Creating user name: arthur
### Creation time: Tue Nov 27 11:30:24 2001


@<TRIPOS>MOLECULE
2xis_ligand
   22    21     1     0     0
SMALL
USER_CHARGES


@<TRIPOS>ATOM
      1 C1          9.9298   33.8286   46.9163 C.3       1 SUB1        0.000
      2 C2         11.3419   34.1058   46.3680 C.3       1 SUB1        0.000
      3 C3         12.0388   32.7712   46.0444 C.3       1 SUB1        0.000
      4 C4         13.5484   33.0117   45.8569 C.3       1 SUB1        0.000
      5 C5         14.2717   31.6588   45.7230 C.3       1 SUB1        0.000
      6 O1          9.3951   35.0266   47.4853 O.3       1 SUB1        0.000
      7 O2         11.1881   34.8673   45.1675 O.3       1 SUB1        0.000
      8 O3         11.4934   32.2065   44.8491 O.3       1 SUB1        0.000
      9 O4         13.8428   33.8252   44.7183 O.3       1 SUB1        0.000
     10 O5         14.3677   31.0395   47.0084 O.3       1 SUB1        0.000
     11 ****        9.9835   33.0479   47.6894 H         1 SUB1        0.000
     12 ****        9.2786   33.4895   46.0973 H         1 SUB1        0.000
     13 ****       11.9345   34.6684   47.1044 H         1 SUB1        0.000
     14 ****       11.8830   32.0709   46.8783 H         1 SUB1        0.000
     15 ****       13.9259   33.5275   46.7521 H         1 SUB1        0.000
     16 ****       15.2815   31.8215   45.3183 H         1 SUB1        0.000
     17 ****       13.7050   31.0058   45.0430 H         1 SUB1        0.000
     18 ****        8.5240   34.8551   47.8234 H         1 SUB1        0.000
     19 ****       10.7582   35.6905   45.3676 H         1 SUB1        0.000
     20 ****       10.5622   32.0584   44.9652 H         1 SUB1        0.000
     21 ****       13.3963   34.6596   44.8014 H         1 SUB1        0.000
     22 ****       14.8140   30.2050   46.9253 H         1 SUB1        0.000
@<TRIPOS>BOND
     1    1    2 1  
     2    2    3 1  
     3    3    4 1  
     4    4    5 1  
     5    1    6 1  
     6    2    7 1  
     7    3    8 1  
     8    4    9 1  
     9    5   10 1  
    10    1   11 1  
    11    1   12 1  
    12    2   13 1  
    13    3   14 1  
    14    4   15 1  
    15    5   16 1  
    16    5   17 1  
    17    6   18 1  
    18    7   19 1  
    19    8   20 1  
    20    9   21 1  
    21   10   22 1  
@<TRIPOS>SUBSTRUCTURE
     1 SUB1        1 GROUP

