### Name: 3cpa_ligand
### Creating user name: arthur
### Creation time: Tue Nov 27 11:30:24 2001


@<TRIPOS>MOLECULE
3cpa_ligand
   31    31     1     0     0
SMALL
USER_CHARGES


@<TRIPOS>ATOM
      1 N          -3.5060   29.0420   -4.5260 N.4       1 SUB1        1.000
      2 CA         -3.8060   29.8030   -5.7490 C.3       1 SUB1        0.000
      3 C          -2.8500   29.3820   -6.8620 C.2       1 SUB1        0.000
      4 O          -1.9840   28.5160   -6.6620 O.2       1 SUB1        0.000
      5 N          -3.0210   29.9990   -8.0170 N.am      1 SUB1        0.000
      6 CA         -2.1330   29.7290   -9.1530 C.3       1 SUB1        0.000
      7 C          -0.7550   30.0020   -8.5410 C.2       1 SUB1        0.000
      8 O           0.0840   29.0950   -8.4270 O.co2     1 SUB1       -0.500
      9 CB         -2.5360   30.6380  -10.3310 C.3       1 SUB1        0.000
     10 CG         -2.0160   30.1310  -11.6820 C.ar      1 SUB1        0.000
     11 CD1        -0.7120   30.4940  -12.0600 C.ar      1 SUB1        0.000
     12 CD2        -2.8120   29.4120  -12.5380 C.ar      1 SUB1        0.000
     13 CE1        -0.2120   30.0280  -13.3450 C.ar      1 SUB1        0.000
     14 CE2        -2.3330   28.9520  -13.8000 C.ar      1 SUB1        0.000
     15 CZ         -1.0330   29.3270  -14.1610 C.ar      1 SUB1        0.000
     16 OH         -0.5700   28.9060  -15.3880 O.3       1 SUB1        0.000
     17 OXT        -0.5410   31.2470   -8.1570 O.co2     1 SUB1       -0.500
     18 H          -2.6816   28.3700   -4.7133 H         1 SUB1        0.000
     19 HA1        -4.8416   29.6019   -6.0605 H         1 SUB1        0.000
     20 HA2        -3.6852   30.8781   -5.5500 H         1 SUB1        0.000
     21 H          -3.7655   30.6589   -8.1185 H         1 SUB1        0.000
     22 HA         -2.2007   28.6803   -9.4779 H         1 SUB1        0.000
     23 HB1        -2.1283   31.6441  -10.1533 H         1 SUB1        0.000
     24 HB2        -3.6339   30.6898  -10.3746 H         1 SUB1        0.000
     25 HD1        -0.0947   31.1051  -11.4115 H         1 SUB1        0.000
     26 HD2        -3.8319   29.1878  -12.2472 H         1 SUB1        0.000
     27 HE1         0.8077   30.2403  -13.6454 H         1 SUB1        0.000
     28 HE2        -2.9473   28.3398  -14.4503 H         1 SUB1        0.000
     29 HH          0.3172   29.2204  -15.5165 H         1 SUB1        0.000
     30 ****       -4.3757   28.4722   -4.2341 H         1 SUB1        0.000
     31 H1         -3.2582   29.6797   -3.7857 H         1 SUB1        0.000
@<TRIPOS>BOND
     1    2    1 1  
     2    2    3 1  
     3    3    4 2  
     4    6    5 1  
     5    6    9 1  
     6    6    7 1  
     7    7    8 ar 
     8    7   17 ar 
     9    9   10 1  
    10   10   11 ar 
    11   10   12 ar 
    12   12   14 ar 
    13   14   15 ar 
    14   15   16 1  
    15   15   13 ar 
    16   13   11 ar 
    17    3    5 am 
    18    1   18 1  
    19    2   19 1  
    20    2   20 1  
    21    5   21 1  
    22    6   22 1  
    23    9   23 1  
    24    9   24 1  
    25   11   25 1  
    26   12   26 1  
    27   13   27 1  
    28   14   28 1  
    29   16   29 1  
    30    1   30 1  
    31    1   31 1  
@<TRIPOS>SUBSTRUCTURE
     1 SUB1        1 GROUP

