### Name: 3er3_ligand
### Creating user name: arthur
### Creation time: Tue Nov 27 11:30:25 2001


@<TRIPOS>MOLECULE
3er3_ligand
  124   126     1     0     0
SMALL
USER_CHARGES


@<TRIPOS>ATOM
      1 OT1         1.5750   27.1820   19.7870 O.2       1 SUB1        0.000
      2 CT1         2.4370   26.3690   19.3430 C.2       1 SUB1        0.000
      3 OT2         2.2300   24.9630   19.4450 O.3       1 SUB1        0.000
      4 CT2         1.2420   24.5790   20.3970 C.3       1 SUB1        0.000
      5 CT3         1.3590   23.0810   20.6800 C.3       1 SUB1        0.000
      6 CT4        -0.1490   24.8950   19.8420 C.3       1 SUB1        0.000
      7 CT5         1.4510   25.3690   21.6910 C.3       1 SUB1        0.000
      8 N           3.5630   26.7010   18.7700 N.am      1 SUB1        0.000
      9 CA          3.9450   28.0880   18.5510 C.3       1 SUB1        0.000
     10 C           3.2430   28.6420   17.3150 C.2       1 SUB1        0.000
     11 O           3.0250   27.9310   16.3310 O.2       1 SUB1        0.000
     12 CB          5.4510   28.1700   18.2710 C.3       1 SUB1        0.000
     13 CG          6.2940   27.9840   19.5230 C.ar      1 SUB1        0.000
     14 CD1         5.9110   28.6210   20.7000 C.ar      1 SUB1        0.000
     15 CD2         7.4410   27.1800   19.4930 C.ar      1 SUB1        0.000
     16 CE1         6.6670   28.4560   21.8590 C.ar      1 SUB1        0.000
     17 CE2         8.1990   27.0120   20.6560 C.ar      1 SUB1        0.000
     18 CZ          7.8100   27.6510   21.8400 C.ar      1 SUB1        0.000
     19 N           2.8670   29.9030   17.3910 N.am      1 SUB1        0.000
     20 CA          2.3980   30.6200   16.1950 C.3       1 SUB1        0.000
     21 C           3.2410   31.8870   16.0240 C.2       1 SUB1        0.000
     22 O           2.8600   32.9720   16.4770 O.2       1 SUB1        0.000
     23 CB          0.9600   31.1690   16.2270 C.3       1 SUB1        0.000
     24 CG         -0.1570   30.3180   16.8350 C.2       1 SUB1        0.000
     25 ND1        -0.2950   28.9400   16.6380 N.pl3     1 SUB1        0.000
     26 CD2        -1.1920   30.7010   17.6230 C.2       1 SUB1        0.000
     27 CE1        -1.3820   28.5440   17.3030 C.2       1 SUB1        0.000
     28 NE2        -1.9230   29.5870   17.8950 N.2       1 SUB1        0.000
     29 N           4.3930   31.7540   15.3860 N.am      1 SUB1        0.000
     30 CA          5.2700   32.9210   15.1470 C.3       1 SUB1        0.000
     31 CB          6.7380   32.5640   15.3220 C.3       1 SUB1        0.000
     32 CG          7.0730   31.9970   16.7040 C.3       1 SUB1        0.000
     33 CD1         6.5920   32.9520   17.8140 C.3       1 SUB1        0.000
     34 CD2         8.4640   31.8090   16.7910 C.3       1 SUB1        0.000
     35 CE1         6.9360   32.3840   19.1980 C.3       1 SUB1        0.000
     36 CE2         8.8490   31.1870   18.1410 C.3       1 SUB1        0.000
     37 CZ          8.4350   32.1100   19.2840 C.3       1 SUB1        0.000
     38 CH          5.0570   33.4500   13.7300 C.3       1 SUB1        0.000
     39 OH          5.1690   32.3750   12.7980 O.3       1 SUB1        0.000
     40 CM          3.6740   34.0820   13.6810 C.3       1 SUB1        0.000
     41 CA2         3.5220   35.0030   12.5420 C.3       1 SUB1        0.000
     42 CB2         2.4740   34.4900   11.6660 C.3       1 SUB1        0.000
     43 CG2         1.1220   34.9380   12.2060 C.3       1 SUB1        0.000
     44 CD3         0.0060   34.4980   11.2620 C.3       1 SUB1        0.000
     45 CD4         0.8740   34.3390   13.5930 C.3       1 SUB1        0.000
     46 C           3.1670   36.2260   12.9760 C.2       1 SUB1        0.000
     47 O           2.6490   36.3840   14.0880 O.2       1 SUB1        0.000
     48 N           3.3600   37.2320   12.1200 N.am      1 SUB1        0.000
     49 CA          3.1440   38.6540   12.4960 C.3       1 SUB1        0.000
     50 C           1.6650   38.9910   12.7110 C.2       1 SUB1        0.000
     51 O           0.9000   39.2090   11.7660 O.co2     1 SUB1       -0.500
     52 CB          3.7510   39.5740   11.4350 C.3       1 SUB1        0.000
     53 CG          4.1760   40.9250   12.0040 C.3       1 SUB1        0.000
     54 CD          3.3120   42.0580   11.4720 C.3       1 SUB1        0.000
     55 CE          3.6790   43.4130   12.0600 C.3       1 SUB1        0.000
     56 NZ          4.0920   44.3820   11.0390 N.4       1 SUB1        1.000
     57 ****        1.2156   39.0475   13.8868 O.co2     1 SUB1       -0.500
     58 H           4.1843   25.9766   18.4714 H         1 SUB1        0.000
     59 HA          3.6864   28.6871   19.4366 H         1 SUB1        0.000
     60 HB2         5.6751   29.1568   17.8398 H         1 SUB1        0.000
     61 HB1         5.7174   27.3849   17.5480 H         1 SUB1        0.000
     62 HD1         5.0249   29.2452   20.7150 H         1 SUB1        0.000
     63 HD2         7.7393   26.6907   18.5729 H         1 SUB1        0.000
     64 HE1         6.3688   28.9520   22.7756 H         1 SUB1        0.000
     65 HE2         9.0857   26.3886   20.6412 H         1 SUB1        0.000
     66 HZ          8.3958   27.5213   22.7428 H         1 SUB1        0.000
     67 H           2.9009   30.3773   18.2707 H         1 SUB1        0.000
     68 HA          2.5112   29.9515   15.3288 H         1 SUB1        0.000
     69 HB2         0.6733   31.3768   15.1855 H         1 SUB1        0.000
     70 HB1         0.9895   32.1111   16.7940 H         1 SUB1        0.000
     71 HD1         0.3294   28.3397   16.0806 H         1 SUB1        0.000
     72 HD2        -1.3990   31.7114   17.9725 H         1 SUB1        0.000
     73 HE1        -1.7598   27.5236   17.3483 H         1 SUB1        0.000
     74 H           3.6614   37.0210   11.1902 H         1 SUB1        0.000
     75 HA          3.6684   38.8326   13.4463 H         1 SUB1        0.000
     76 HB2         3.0035   39.7434   10.6460 H         1 SUB1        0.000
     77 HB1         4.6339   39.0798   11.0035 H         1 SUB1        0.000
     78 HG2         5.2232   41.1150   11.7262 H         1 SUB1        0.000
     79 HG1         4.0873   40.8938   13.1000 H         1 SUB1        0.000
     80 HD2         2.2616   41.8425   11.7172 H         1 SUB1        0.000
     81 HD1         3.4310   42.1062   10.3795 H         1 SUB1        0.000
     82 HE2         4.5080   43.2754   12.7698 H         1 SUB1        0.000
     83 HE1         2.8037   43.8142   12.5919 H         1 SUB1        0.000
     84 HZ3         4.9051   44.0343   10.5552 H         1 SUB1        0.000
     85 HZ2         4.3137   45.2609   11.4800 H         1 SUB1        0.000
     86 HZ1         3.3411   44.5167   10.3802 H         1 SUB1        0.000
     87 ****        0.5957   22.7860   21.4151 H         1 SUB1        0.000
     88 ****        2.3591   22.8607   21.0815 H         1 SUB1        0.000
     89 ****        1.2063   22.5186   19.7471 H         1 SUB1        0.000
     90 ****       -0.9127   24.5989   20.5763 H         1 SUB1        0.000
     91 ****       -0.3053   24.3389   18.9059 H         1 SUB1        0.000
     92 ****       -0.2287   25.9743   19.6451 H         1 SUB1        0.000
     93 ****        0.6892   25.0741   22.4277 H         1 SUB1        0.000
     94 ****        1.3618   26.4453   21.4820 H         1 SUB1        0.000
     95 ****        2.4522   25.1554   22.0934 H         1 SUB1        0.000
     96 ****        5.0088   33.7090   15.8687 H         1 SUB1        0.000
     97 ****        7.3375   33.4728   15.1649 H         1 SUB1        0.000
     98 ****        7.0054   31.8127   14.5643 H         1 SUB1        0.000
     99 ****        6.5688   31.0272   16.8274 H         1 SUB1        0.000
    100 ****        5.5022   33.0787   17.7354 H         1 SUB1        0.000
    101 ****        7.0845   33.9278   17.6906 H         1 SUB1        0.000
    102 ****        8.9663   32.7820   16.6864 H         1 SUB1        0.000
    103 ****        8.7885   31.1398   15.9805 H         1 SUB1        0.000
    104 ****        6.3833   31.4461   19.3560 H         1 SUB1        0.000
    105 ****        6.6524   33.1117   19.9726 H         1 SUB1        0.000
    106 ****        9.9379   31.0345   18.1735 H         1 SUB1        0.000
    107 ****        8.3395   30.2186   18.2534 H         1 SUB1        0.000
    108 ****        8.6654   31.6287   20.2459 H         1 SUB1        0.000
    109 ****        8.9863   33.0587   19.2073 H         1 SUB1        0.000
    110 ****        5.8169   34.2102   13.4963 H         1 SUB1        0.000
    111 ****        5.0364   32.7047   11.9170 H         1 SUB1        0.000
    112 ****        3.5072   34.6415   14.6133 H         1 SUB1        0.000
    113 ****        2.9227   33.2834   13.5931 H         1 SUB1        0.000
    114 ****        4.4717   35.0691   11.9909 H         1 SUB1        0.000
    115 ****        2.5170   33.3911   11.6418 H         1 SUB1        0.000
    116 ****        2.6155   34.8850   10.6492 H         1 SUB1        0.000
    117 ****        1.1162   36.0353   12.2831 H         1 SUB1        0.000
    118 ****       -0.9641   34.8271   11.6626 H         1 SUB1        0.000
    119 ****        0.0127   33.4017   11.1721 H         1 SUB1        0.000
    120 ****        0.1652   34.9481   10.2710 H         1 SUB1        0.000
    121 ****        1.6761   34.6535   14.2769 H         1 SUB1        0.000
    122 ****        0.8624   33.2414   13.5217 H         1 SUB1        0.000
    123 ****       -0.0946   34.6918   13.9770 H         1 SUB1        0.000
    124 ****        4.6747   30.8513   15.0607 H         1 SUB1        0.000
@<TRIPOS>BOND
     1    9    8 1  
     2    9   12 1  
     3    9   10 1  
     4   10   11 2  
     5   12   13 1  
     6   13   14 ar 
     7   13   15 ar 
     8   15   17 ar 
     9   17   18 ar 
    10   18   16 ar 
    11   16   14 ar 
    12   20   19 1  
    13   20   23 1  
    14   20   21 1  
    15   21   22 2  
    16   23   24 1  
    17   24   25 1  
    18   24   26 2  
    19   26   28 1  
    20   28   27 2  
    21   27   25 1  
    22   10   19 am 
    23   49   48 1  
    24   49   52 1  
    25   49   50 1  
    26   50   51 ar 
    27   52   53 1  
    28   53   54 1  
    29   54   55 1  
    30   55   56 1  
    31    1    2 2  
    32    2    3 1  
    33    2    8 am 
    34    3    4 1  
    35    4    5 1  
    36    4    6 1  
    37    4    7 1  
    38   21   29 am 
    39   29   30 1  
    40   30   31 1  
    41   30   38 1  
    42   31   32 1  
    43   32   33 1  
    44   32   34 1  
    45   33   35 1  
    46   34   36 1  
    47   35   37 1  
    48   36   37 1  
    49   38   39 1  
    50   38   40 1  
    51   40   41 1  
    52   41   42 1  
    53   41   46 1  
    54   42   43 1  
    55   43   44 1  
    56   43   45 1  
    57   46   47 2  
    58   46   48 am 
    59   50   57 ar 
    60    8   58 1  
    61    9   59 1  
    62   12   60 1  
    63   12   61 1  
    64   14   62 1  
    65   15   63 1  
    66   16   64 1  
    67   17   65 1  
    68   18   66 1  
    69   19   67 1  
    70   20   68 1  
    71   23   69 1  
    72   23   70 1  
    73   25   71 1  
    74   26   72 1  
    75   27   73 1  
    76   48   74 1  
    77   49   75 1  
    78   52   76 1  
    79   52   77 1  
    80   53   78 1  
    81   53   79 1  
    82   54   80 1  
    83   54   81 1  
    84   55   82 1  
    85   55   83 1  
    86   56   84 1  
    87   56   85 1  
    88   56   86 1  
    89    5   87 1  
    90    5   88 1  
    91    5   89 1  
    92    6   90 1  
    93    6   91 1  
    94    6   92 1  
    95    7   93 1  
    96    7   94 1  
    97    7   95 1  
    98   30   96 1  
    99   31   97 1  
   100   31   98 1  
   101   32   99 1  
   102   33  100 1  
   103   33  101 1  
   104   34  102 1  
   105   34  103 1  
   106   35  104 1  
   107   35  105 1  
   108   36  106 1  
   109   36  107 1  
   110   37  108 1  
   111   37  109 1  
   112   38  110 1  
   113   39  111 1  
   114   40  112 1  
   115   40  113 1  
   116   41  114 1  
   117   42  115 1  
   118   42  116 1  
   119   43  117 1  
   120   44  118 1  
   121   44  119 1  
   122   44  120 1  
   123   45  121 1  
   124   45  122 1  
   125   45  123 1  
   126   29  124 1  
@<TRIPOS>SUBSTRUCTURE
     1 SUB1        1 GROUP

