### Name: 3pgm_ligand
### Creating user name: arthur
### Creation time: Tue Nov 27 11:30:30 2001


@<TRIPOS>MOLECULE
3pgm_ligand
   15    14     1     0     0
SMALL
USER_CHARGES


@<TRIPOS>ATOM
      1 H1          0.2519  -18.3321  -22.0482 H         1 SUB1        0.000
      2 H2          1.1689  -19.2262  -20.1185 H         1 SUB1        0.000
      3 H3          3.0875  -18.7305  -21.4209 H         1 SUB1        0.000
      4 H4          2.8840  -17.4766  -22.6909 H         1 SUB1        0.000
      5 O1          1.3540  -15.6170  -20.6220 O.co2     1 SUB1       -0.500
      6 C1          0.9940  -16.3530  -21.6180 C.2       1 SUB1        0.000
      7 O2          0.5410  -15.8080  -22.6950 O.co2     1 SUB1       -0.500
      8 C2          1.1060  -17.8740  -21.5280 C.3       1 SUB1        0.000
      9 OH          1.0990  -18.2800  -20.1670 O.3       1 SUB1        0.000
     10 C3          2.4090  -18.3330  -22.1900 C.3       1 SUB1        0.000
     11 OPC         2.1350  -19.3620  -23.1620 O.3       1 SUB1        0.000
     12 PC          1.9500  -18.9870  -24.7090 P.3       1 SUB1        0.000
     13 OC1         2.0770  -20.2040  -25.5420 O.co2     1 SUB1       -0.500
     14 OC2         2.9830  -18.0110  -25.1240 O.co2     1 SUB1       -0.500
     15 OC3         0.6140  -18.3900  -24.9300 O.co2     1 SUB1       -0.500
@<TRIPOS>BOND
     1    8    1 1  
     2    9    2 1  
     3   10    3 1  
     4   10    4 1  
     5    5    6 ar 
     6    6    7 ar 
     7    6    8 1  
     8    8    9 1  
     9    8   10 1  
    10   10   11 1  
    11   11   12 1  
    12   12   13 ar 
    13   12   14 ar 
    14   12   15 ar 
@<TRIPOS>SUBSTRUCTURE
     1 SUB1        1 GROUP

