### Name: 3ts1_ligand
### Creating user name: arthur
### Creation time: Tue Nov 27 11:30:30 2001


@<TRIPOS>MOLECULE
3ts1_ligand
   59    62     1     0     0
SMALL
USER_CHARGES


@<TRIPOS>ATOM
      1 H1        -15.7349   16.2154   -8.4902 H         1 SUB1        0.000
      2 H2        -15.0717   17.7650   -7.8692 H         1 SUB1        0.000
      3 H3        -16.3726   17.6721   -5.8799 H         1 SUB1        0.000
      4 H4        -15.3982   15.1840   -5.4112 H         1 SUB1        0.000
      5 H5        -17.0041   14.8923   -3.8293 H         1 SUB1        0.000
      6 H6        -16.6078   13.8909   -7.0499 H         1 SUB1        0.000
      7 H7        -18.4154   12.9443   -5.9377 H         1 SUB1        0.000
      8 H8        -18.9517   15.5163   -6.3445 H         1 SUB1        0.000
      9 H9        -17.6656   14.8404   -9.9227 H         1 SUB1        0.000
     10 H10       -23.7057   13.2854  -10.5899 H         1 SUB1        0.000
     11 H11       -22.1446   13.4073  -11.4448 H         1 SUB1        0.000
     12 H12       -22.9530   14.4940   -6.3027 H         1 SUB1        0.000
     13 H13       -10.9281   12.7544   -4.9369 H         1 SUB1        0.000
     14 H14        -9.7724   13.7433   -4.3076 H         1 SUB1        0.000
     15 H15       -10.1657   13.8478   -5.9025 H         1 SUB1        0.000
     16 H16       -11.9242   14.5150   -3.6294 H         1 SUB1        0.000
     17 H17       -13.2242   13.5575   -5.3518 H         1 SUB1        0.000
     18 H18       -13.4168   15.3401   -5.4613 H         1 SUB1        0.000
     19 H19       -11.7381   16.8121   -4.9194 H         1 SUB1        0.000
     20 H20       -10.2029   16.1049   -5.5275 H         1 SUB1        0.000
     21 H21       -12.1042   16.1885   -2.3626 H         1 SUB1        0.000
     22 H22        -8.3453   16.7457   -4.3626 H         1 SUB1        0.000
     23 H23       -11.0554   16.8550   -0.2240 H         1 SUB1        0.000
     24 H24        -7.2682   17.2684   -2.1880 H         1 SUB1        0.000
     25 H25        -9.2744   17.3916    0.7939 H         1 SUB1        0.000
     26 OPP       -12.3270   14.4590   -6.9880 O.3       1 SUB1        0.000
     27 P         -13.2550   15.2530   -7.9460 P.3       1 SUB1        0.000
     28 O1P       -12.6530   16.1560   -8.9500 O.co2     1 SUB1       -0.500
     29 O2P       -13.9680   14.4650   -8.9550 O.co2     1 SUB1       -0.500
     30 O5'       -14.2600   16.0430   -7.0370 O.3       1 SUB1        0.000
     31 C5'       -15.3610   16.7390   -7.5980 C.3       1 SUB1        0.000
     32 C4'       -16.4410   16.7540   -6.4820 C.3       1 SUB1        0.000
     33 O4'       -17.6790   16.6710   -7.2500 O.3       1 SUB1        0.000
     34 C3'       -16.4330   15.5200   -5.5730 C.3       1 SUB1        0.000
     35 O3'       -17.0530   15.7000   -4.3270 O.3       1 SUB1        0.000
     36 C2'       -17.2380   14.4760   -6.3640 C.3       1 SUB1        0.000
     37 O2'       -17.9190   13.5880   -5.4460 O.3       1 SUB1        0.000
     38 C1'       -18.1670   15.3790   -7.1030 C.3       1 SUB1        0.000
     39 N9        -18.9610   14.9300   -8.2110 N.pl3     1 SUB1        0.000
     40 C8        -18.6640   14.7060   -9.5090 C.2       1 SUB1        0.000
     41 N7        -19.7090   14.3040  -10.2390 N.2       1 SUB1        0.000
     42 C5        -20.7410   14.2380   -9.3130 C.ar      1 SUB1        0.000
     43 C6        -22.1130   13.9090   -9.4540 C.ar      1 SUB1        0.000
     44 N6        -22.6990   13.5030  -10.5820 N.pl3     1 SUB1        0.000
     45 N1        -22.8630   13.9860   -8.3190 N.ar      1 SUB1        0.000
     46 C2        -22.2920   14.4240   -7.1590 C.ar      1 SUB1        0.000
     47 N3        -21.0690   14.7640   -6.9540 N.ar      1 SUB1        0.000
     48 C4        -20.3210   14.6550   -8.0850 C.ar      1 SUB1        0.000
     49 NH2       -10.5240   13.6770   -4.9760 N.4       1 SUB1        1.000
     50 CA        -11.5620   14.6850   -4.6540 C.3       1 SUB1        0.000
     51 C         -12.7180   14.5020   -5.6000 C.3       1 SUB1        0.000
     52 CB        -10.9440   16.0790   -4.7150 C.3       1 SUB1        0.000
     53 CG        -10.3080   16.4210   -3.5070 C.ar      1 SUB1        0.000
     54 CD1       -11.0520   16.4480   -2.3370 C.ar      1 SUB1        0.000
     55 CD2        -8.9350   16.7430   -3.4530 C.ar      1 SUB1        0.000
     56 CE1       -10.4560   16.8070   -1.1260 C.ar      1 SUB1        0.000
     57 CE2        -8.3310   17.0590   -2.2300 C.ar      1 SUB1        0.000
     58 CZ         -9.0950   17.1040   -1.0700 C.ar      1 SUB1        0.000
     59 OH         -8.5840   17.4200    0.1420 O.3       1 SUB1        0.000
@<TRIPOS>BOND
     1   31    1 1  
     2   31    2 1  
     3   32    3 1  
     4   34    4 1  
     5   35    5 1  
     6   36    6 1  
     7   37    7 1  
     8   38    8 1  
     9   40    9 1  
    10   44   10 1  
    11   44   11 1  
    12   46   12 1  
    13   49   13 1  
    14   49   14 1  
    15   49   15 1  
    16   50   16 1  
    17   51   17 1  
    18   51   18 1  
    19   52   19 1  
    20   52   20 1  
    21   54   21 1  
    22   55   22 1  
    23   56   23 1  
    24   57   24 1  
    25   59   25 1  
    26   26   27 1  
    27   26   51 1  
    28   27   28 ar 
    29   27   29 ar 
    30   27   30 1  
    31   30   31 1  
    32   31   32 1  
    33   32   33 1  
    34   32   34 1  
    35   33   38 1  
    36   34   35 1  
    37   34   36 1  
    38   36   37 1  
    39   36   38 1  
    40   38   39 1  
    41   39   40 1  
    42   39   48 1  
    43   40   41 2  
    44   41   42 1  
    45   42   43 ar 
    46   42   48 ar 
    47   43   44 1  
    48   43   45 ar 
    49   45   46 ar 
    50   46   47 ar 
    51   47   48 ar 
    52   50   49 1  
    53   51   50 1  
    54   50   52 1  
    55   52   53 1  
    56   53   54 ar 
    57   53   55 ar 
    58   54   56 ar 
    59   55   57 ar 
    60   56   58 ar 
    61   57   58 ar 
    62   58   59 1  
@<TRIPOS>SUBSTRUCTURE
     1 SUB1        1 GROUP

