### Name: 4er4_ligand
### Creating user name: arthur
### Creation time: Tue Nov 27 11:30:25 2001


@<TRIPOS>MOLECULE
4er4_ligand
  159   164     1     0     0
SMALL
USER_CHARGES


@<TRIPOS>ATOM
      1 N          31.0930   -4.0620  -12.7540 N.am      1 SUB1        0.000
      2 CA         31.1420   -3.6930  -11.3120 C.3       1 SUB1        0.000
      3 C          32.4370   -4.2110  -10.6390 C.2       1 SUB1        0.000
      4 O          33.0610   -5.1820  -11.1680 O.2       1 SUB1        0.000
      5 CB         29.9780   -4.4660  -10.7110 C.3       1 SUB1        0.000
      6 CG         29.3640   -5.3310  -11.8150 C.3       1 SUB1        0.000
      7 CD         30.1540   -5.1510  -13.0740 C.3       1 SUB1        0.000
      8 N          32.8030   -3.5760   -9.4940 N.am      1 SUB1        0.000
      9 CA         33.9610   -4.0220   -8.6280 C.3       1 SUB1        0.000
     10 C          33.4680   -4.3670   -7.2060 C.2       1 SUB1        0.000
     11 O          33.6640   -3.5930   -6.2570 O.2       1 SUB1        0.000
     12 CB         35.0140   -2.8970   -8.4780 C.3       1 SUB1        0.000
     13 CG         36.4340   -3.4030   -8.0990 C.2       1 SUB1        0.000
     14 ND1        36.6720   -4.2070   -6.9760 N.pl3     1 SUB1        0.000
     15 CD2        37.6560   -3.2030   -8.6710 C.2       1 SUB1        0.000
     16 CE1        37.9720   -4.4600   -6.9110 C.2       1 SUB1        0.000
     17 NE2        38.5700   -3.8690   -7.9110 N.2       1 SUB1        0.000
     18 N          32.8080   -5.5250   -6.9990 N.am      1 SUB1        0.000
     19 CA         32.3400   -5.9150   -5.6770 C.3       1 SUB1        0.000
     20 C          33.5010   -6.0440   -4.7270 C.2       1 SUB1        0.000
     21 O          34.6820   -5.9100   -5.1750 O.2       1 SUB1        0.000
     22 CB         31.6400   -7.2350   -5.9110 C.3       1 SUB1        0.000
     23 CG         31.7440   -7.5620   -7.3990 C.3       1 SUB1        0.000
     24 CD         32.5030   -6.4690   -8.0800 C.3       1 SUB1        0.000
     25 N          33.1500   -6.3010   -3.4730 N.am      1 SUB1        0.000
     26 CA         34.1260   -6.4160   -2.3740 C.3       1 SUB1        0.000
     27 C          33.9080   -7.6980   -1.6090 C.2       1 SUB1        0.000
     28 O          32.8780   -8.3370   -1.4690 O.2       1 SUB1        0.000
     29 CB         34.0560   -5.1720   -1.4840 C.3       1 SUB1        0.000
     30 CG         34.9490   -4.0290   -1.9860 C.ar      1 SUB1        0.000
     31 CD1        36.3140   -4.0180   -1.6750 C.ar      1 SUB1        0.000
     32 CD2        34.4010   -2.9980   -2.7610 C.ar      1 SUB1        0.000
     33 CE1        37.1310   -2.9770   -2.1360 C.ar      1 SUB1        0.000
     34 CE2        35.2180   -1.9570   -3.2220 C.ar      1 SUB1        0.000
     35 CZ         36.5820   -1.9470   -2.9090 C.ar      1 SUB1        0.000
     36 N          34.9890   -8.3050   -1.1220 N.am      1 SUB1        0.000
     37 CA         34.7230   -9.5530   -0.3760 C.3       1 SUB1        0.000
     38 C          35.3500   -9.4380    0.9920 C.2       1 SUB1        0.000
     39 O          35.9020  -10.4290    1.4910 O.2       1 SUB1        0.000
     40 CB         35.2870  -10.7320   -1.1750 C.3       1 SUB1        0.000
     41 CG         34.9560  -10.6610   -2.6680 C.2       1 SUB1        0.000
     42 ND1        35.8270  -10.2070   -3.6550 N.pl3     1 SUB1        0.000
     43 CD2        33.7630  -11.0220   -3.3140 C.2       1 SUB1        0.000
     44 CE1        35.2010  -10.2900   -4.8950 C.2       1 SUB1        0.000
     45 NE2        33.9100  -10.7850   -4.6650 N.2       1 SUB1        0.000
     46 N          35.3250   -8.2710    1.6410 N.am      1 SUB1        0.000
     47 CA         36.2070   -8.0630    2.8100 C.3       1 SUB1        0.000
     48 C          35.5320   -8.4570    4.0830 C.3       1 SUB1        0.000
     49 CB         36.5800   -6.6220    3.0560 C.3       1 SUB1        0.000
     50 CG         37.2750   -5.9630    1.8650 C.3       1 SUB1        0.000
     51 CD1        37.4100   -4.4470    2.0180 C.3       1 SUB1        0.000
     52 CD2        38.6950   -6.4860    1.6380 C.3       1 SUB1        0.000
     53 N          34.9970   -9.8470    4.0550 N.4       1 SUB1        1.000
     54 CA         35.2210  -10.7430    5.2510 C.3       1 SUB1        0.000
     55 C          36.6780  -11.2120    5.2440 C.2       1 SUB1        0.000
     56 O          37.3850  -11.0940    4.2320 O.2       1 SUB1        0.000
     57 CB         34.3450  -12.0090    5.1340 C.3       1 SUB1        0.000
     58 CG1        34.8720  -13.0070    4.1010 C.3       1 SUB1        0.000
     59 CG2        34.2460  -12.7960    6.4440 C.3       1 SUB1        0.000
     60 N          37.1400  -11.7430    6.3540 N.am      1 SUB1        0.000
     61 CA         38.5300  -12.2280    6.4350 C.3       1 SUB1        0.000
     62 C          38.6060  -13.6990    6.0560 C.2       1 SUB1        0.000
     63 O          37.5970  -14.4190    6.0920 O.2       1 SUB1        0.000
     64 CB         39.1060  -12.0400    7.8300 C.3       1 SUB1        0.000
     65 CG1        40.5150  -12.6260    7.9620 C.3       1 SUB1        0.000
     66 CG2        38.2510  -12.6880    8.9210 C.3       1 SUB1        0.000
     67 CD1        40.9850  -12.7340    9.4140 C.3       1 SUB1        0.000
     68 N          39.8160  -14.0840    5.7110 N.am      1 SUB1        0.000
     69 CA         40.1360  -15.4480    5.2940 C.3       1 SUB1        0.000
     70 C          40.6870  -16.2300    6.4640 C.2       1 SUB1        0.000
     71 O          39.9730  -17.0120    7.1100 O.2       1 SUB1        0.000
     72 CB         41.1720  -15.4140    4.1490 C.3       1 SUB1        0.000
     73 CG         41.2100  -16.6960    3.2860 C.2       1 SUB1        0.000
     74 ND1        42.4130  -17.2550    2.8470 N.pl3     1 SUB1        0.000
     75 CD2        40.2260  -17.4900    2.7780 C.2       1 SUB1        0.000
     76 CE1        42.1350  -18.3250    2.1210 C.2       1 SUB1        0.000
     77 NE2        40.8370  -18.4790    2.0690 N.2       1 SUB1        0.000
     78 N          41.9400  -16.0640    6.8470 N.am      1 SUB1        0.000
     79 HA         31.0390   -2.6069  -11.1711 H         1 SUB1        0.000
     80 HB2        29.2243   -3.7646  -10.3238 H         1 SUB1        0.000
     81 HB1        30.3381   -5.1061   -9.8921 H         1 SUB1        0.000
     82 HG1        29.3896   -6.3881  -11.5119 H         1 SUB1        0.000
     83 HG2        28.3218   -5.0240  -11.9869 H         1 SUB1        0.000
     84 HD1        30.6970   -6.0728  -13.3298 H         1 SUB1        0.000
     85 HD2        29.4977   -4.8681  -13.9102 H         1 SUB1        0.000
     86 H          32.2799   -2.7726   -9.2093 H         1 SUB1        0.000
     87 HA         34.4282   -4.9068   -9.0850 H         1 SUB1        0.000
     88 HB2        34.6724   -2.2066   -7.6927 H         1 SUB1        0.000
     89 HB1        35.0831   -2.3587   -9.4348 H         1 SUB1        0.000
     90 HD1        35.9586   -4.5440   -6.3139 H         1 SUB1        0.000
     91 HD2        37.8625   -2.6201   -9.5674 H         1 SUB1        0.000
     92 HE1        38.4619   -5.0628   -6.1477 H         1 SUB1        0.000
     93 HA         31.6320   -5.1725   -5.2803 H         1 SUB1        0.000
     94 HB2        30.5826   -7.1547   -5.6187 H         1 SUB1        0.000
     95 HB1        32.1248   -8.0256   -5.3195 H         1 SUB1        0.000
     96 HG1        32.2727   -8.5175   -7.5315 H         1 SUB1        0.000
     97 HG2        30.7358   -7.6377   -7.8324 H         1 SUB1        0.000
     98 HD1        33.4272   -6.8576   -8.5327 H         1 SUB1        0.000
     99 HD2        31.8879   -5.9900   -8.8560 H         1 SUB1        0.000
    100 H          32.1796   -6.4221   -3.2642 H         1 SUB1        0.000
    101 HA         35.1340   -6.4575   -2.8124 H         1 SUB1        0.000
    102 HB2        34.3766   -5.4481   -0.4686 H         1 SUB1        0.000
    103 HB1        33.0149   -4.8181   -1.4563 H         1 SUB1        0.000
    104 HD1        36.7394   -4.8157   -1.0769 H         1 SUB1        0.000
    105 HD2        33.3446   -3.0058   -3.0040 H         1 SUB1        0.000
    106 HE1        38.1877   -2.9693   -1.8942 H         1 SUB1        0.000
    107 HE2        34.7935   -1.1595   -3.8210 H         1 SUB1        0.000
    108 HZ         37.2137   -1.1413   -3.2653 H         1 SUB1        0.000
    109 H          35.9122   -7.9432   -1.2515 H         1 SUB1        0.000
    110 HA         33.6377   -9.6891   -0.2597 H         1 SUB1        0.000
    111 HB2        34.8670  -11.6635   -0.7676 H         1 SUB1        0.000
    112 HB1        36.3808  -10.7416   -1.0593 H         1 SUB1        0.000
    113 HD1        36.7844   -9.8636   -3.4927 H         1 SUB1        0.000
    114 HD2        32.8726  -11.4214   -2.8306 H         1 SUB1        0.000
    115 HE1        35.6314  -10.0219   -5.8588 H         1 SUB1        0.000
    116 H          34.7126   -7.5409    1.3379 H         1 SUB1        0.000
    117 HA         37.1178   -8.6615    2.6606 H         1 SUB1        0.000
    118 HB2        37.2573   -6.5800    3.9218 H         1 SUB1        0.000
    119 HB1        35.6628   -6.0578    3.2804 H         1 SUB1        0.000
    120 HG         36.6708   -6.1773    0.9711 H         1 SUB1        0.000
    121 HD13       36.4100   -3.9966    2.1026 H         1 SUB1        0.000
    122 HD12       37.9248   -4.0340    1.1380 H         1 SUB1        0.000
    123 HD11       37.9922   -4.2202    2.9233 H         1 SUB1        0.000
    124 HD23       39.3081   -6.2804    2.5279 H         1 SUB1        0.000
    125 HD22       39.1359   -5.9828    0.7648 H         1 SUB1        0.000
    126 HD21       38.6619   -7.5707    1.4581 H         1 SUB1        0.000
    127 H          34.0004   -9.7771    3.9209 H         1 SUB1        0.000
    128 HA         34.9905  -10.1997    6.1793 H         1 SUB1        0.000
    129 HB         33.3369  -11.6854    4.8357 H         1 SUB1        0.000
    130 HG13       34.8920  -12.5318    3.1091 H         1 SUB1        0.000
    131 HG12       34.2133  -13.8875    4.0725 H         1 SUB1        0.000
    132 HG11       35.8895  -13.3192    4.3787 H         1 SUB1        0.000
    133 HG23       35.2500  -13.1237    6.7516 H         1 SUB1        0.000
    134 HG22       33.6027  -13.6758    6.2955 H         1 SUB1        0.000
    135 HG21       33.8142  -12.1539    7.2258 H         1 SUB1        0.000
    136 H          36.5423  -11.8189    7.1522 H         1 SUB1        0.000
    137 HA         39.1387  -11.6490    5.7249 H         1 SUB1        0.000
    138 HB         39.1562  -10.9582    8.0227 H         1 SUB1        0.000
    139 HG12       41.2161  -11.9794    7.4140 H         1 SUB1        0.000
    140 HG11       40.5193  -13.6318    7.5166 H         1 SUB1        0.000
    141 HG23       37.2484  -12.2354    8.9183 H         1 SUB1        0.000
    142 HG22       38.7234  -12.5268    9.9012 H         1 SUB1        0.000
    143 HG21       38.1665  -13.7676    8.7278 H         1 SUB1        0.000
    144 HD13       41.0053  -11.7324    9.8683 H         1 SUB1        0.000
    145 HD12       41.9948  -13.1694    9.4411 H         1 SUB1        0.000
    146 HD11       40.2929  -13.3779    9.9765 H         1 SUB1        0.000
    147 H          40.5539  -13.4095    5.7353 H         1 SUB1        0.000
    148 HA         39.2192  -15.9384    4.9349 H         1 SUB1        0.000
    149 HB2        42.1686  -15.2666    4.5906 H         1 SUB1        0.000
    150 HB1        40.9324  -14.5642    3.4929 H         1 SUB1        0.000
    151 HD1        43.3557  -16.8951    3.0536 H         1 SUB1        0.000
    152 HD2        39.1535  -17.3584    2.9135 H         1 SUB1        0.000
    153 HE1        42.8683  -18.9732    1.6436 H         1 SUB1        0.000
    154 H          42.1581  -15.4162    7.5769 H         1 SUB1        0.000
    155 ****       31.6516   -3.6078  -13.4480 H         1 SUB1        0.000
    156 ****       34.6973   -7.7643    4.2656 H         1 SUB1        0.000
    157 ****       36.2599   -8.3786    4.9040 H         1 SUB1        0.000
    158 ****       35.4116  -10.3070    3.2596 H         1 SUB1        0.000
    159 ****       42.6707  -16.5861    6.4071 H         1 SUB1        0.000
@<TRIPOS>BOND
     1    2    3 1  
     2    2    5 1  
     3    2    1 1  
     4    1    7 1  
     5    7    6 1  
     6    6    5 1  
     7    3    4 2  
     8    9    8 1  
     9    9   12 1  
    10    9   10 1  
    11   10   11 2  
    12   12   13 1  
    13   13   14 1  
    14   13   15 2  
    15   15   17 1  
    16   17   16 2  
    17   16   14 1  
    18    3    8 am 
    19   19   20 1  
    20   19   22 1  
    21   19   18 1  
    22   18   24 1  
    23   24   23 1  
    24   23   22 1  
    25   20   21 2  
    26   10   18 am 
    27   26   25 1  
    28   26   29 1  
    29   26   27 1  
    30   27   28 2  
    31   29   30 1  
    32   30   31 ar 
    33   30   32 ar 
    34   32   34 ar 
    35   34   35 ar 
    36   35   33 ar 
    37   33   31 ar 
    38   20   25 am 
    39   37   36 1  
    40   37   40 1  
    41   37   38 1  
    42   38   39 2  
    43   40   41 1  
    44   41   42 1  
    45   41   43 2  
    46   43   45 1  
    47   45   44 2  
    48   44   42 1  
    49   27   36 am 
    50   47   46 1  
    51   47   49 1  
    52   47   48 1  
    53   49   50 1  
    54   50   51 1  
    55   50   52 1  
    56   38   46 am 
    57   54   53 1  
    58   54   57 1  
    59   54   55 1  
    60   55   56 2  
    61   57   59 1  
    62   57   58 1  
    63   48   53 1  
    64   61   60 1  
    65   61   64 1  
    66   61   62 1  
    67   62   63 2  
    68   64   66 1  
    69   64   65 1  
    70   65   67 1  
    71   55   60 am 
    72   69   68 1  
    73   69   72 1  
    74   69   70 1  
    75   70   71 2  
    76   72   73 1  
    77   73   74 1  
    78   73   75 2  
    79   75   77 1  
    80   77   76 2  
    81   76   74 1  
    82   62   68 am 
    83   70   78 am 
    84    2   79 1  
    85    5   80 1  
    86    5   81 1  
    87    6   82 1  
    88    6   83 1  
    89    7   84 1  
    90    7   85 1  
    91    8   86 1  
    92    9   87 1  
    93   12   88 1  
    94   12   89 1  
    95   14   90 1  
    96   15   91 1  
    97   16   92 1  
    98   19   93 1  
    99   22   94 1  
   100   22   95 1  
   101   23   96 1  
   102   23   97 1  
   103   24   98 1  
   104   24   99 1  
   105   25  100 1  
   106   26  101 1  
   107   29  102 1  
   108   29  103 1  
   109   31  104 1  
   110   32  105 1  
   111   33  106 1  
   112   34  107 1  
   113   35  108 1  
   114   36  109 1  
   115   37  110 1  
   116   40  111 1  
   117   40  112 1  
   118   42  113 1  
   119   43  114 1  
   120   44  115 1  
   121   46  116 1  
   122   47  117 1  
   123   49  118 1  
   124   49  119 1  
   125   50  120 1  
   126   51  121 1  
   127   51  122 1  
   128   51  123 1  
   129   52  124 1  
   130   52  125 1  
   131   52  126 1  
   132   53  127 1  
   133   54  128 1  
   134   57  129 1  
   135   58  130 1  
   136   58  131 1  
   137   58  132 1  
   138   59  133 1  
   139   59  134 1  
   140   59  135 1  
   141   60  136 1  
   142   61  137 1  
   143   64  138 1  
   144   65  139 1  
   145   65  140 1  
   146   66  141 1  
   147   66  142 1  
   148   66  143 1  
   149   67  144 1  
   150   67  145 1  
   151   67  146 1  
   152   68  147 1  
   153   69  148 1  
   154   72  149 1  
   155   72  150 1  
   156   74  151 1  
   157   75  152 1  
   158   76  153 1  
   159   78  154 1  
   160    1  155 1  
   161   48  156 1  
   162   48  157 1  
   163   53  158 1  
   164   78  159 1  
@<TRIPOS>SUBSTRUCTURE
     1 SUB1        1 GROUP

