### Name: 4fab_ligand
### Creating user name: arthur
### Creation time: Tue Nov 27 11:30:30 2001


@<TRIPOS>MOLECULE
4fab_ligand
   37    40     1     0     0
SMALL
USER_CHARGES


@<TRIPOS>ATOM
      1 H1         27.5336  -11.8584   23.6087 H         1 SUB1        0.000
      2 H2         26.4897  -11.2246   21.9306 H         1 SUB1        0.000
      3 H3         24.0645   -9.9261   18.1937 H         1 SUB1        0.000
      4 H4         22.4657  -10.4225   15.2165 H         1 SUB1        0.000
      5 H5         22.8860  -12.8200   15.2382 H         1 SUB1        0.000
      6 H6         23.9519  -14.6318   16.5537 H         1 SUB1        0.000
      7 H7         26.3934  -15.9767   20.4210 H         1 SUB1        0.000
      8 H8         27.5033  -15.3518   22.5527 H         1 SUB1        0.000
      9 H9         23.0402  -15.5503   18.9187 H         1 SUB1        0.000
     10 H10        22.6482  -17.8234   18.0301 H         1 SUB1        0.000
     11 H11        24.4921  -19.1986   17.0101 H         1 SUB1        0.000
     12 H12        26.7473  -18.2289   16.8192 H         1 SUB1        0.000
     13 C1         27.0670  -13.2280   22.3790 C.ar      1 SUB1        0.000
     14 O1         27.6360  -12.8000   23.5350 O.3       1 SUB1        0.000
     15 C2         26.4740  -12.2630   21.6200 C.ar      1 SUB1        0.000
     16 C3         25.8540  -12.6400   20.4480 C.ar      1 SUB1        0.000
     17 O2         25.2630  -11.6650   19.7100 O.3       1 SUB1        0.000
     18 C4         24.6290  -11.9710   18.5270 C.ar      1 SUB1        0.000
     19 C5         24.0370  -10.9440   17.8220 C.ar      1 SUB1        0.000
     20 C6         23.4150  -11.2430   16.6430 C.ar      1 SUB1        0.000
     21 O3         22.8830  -10.1550   16.0270 O.3       1 SUB1        0.000
     22 C7         23.3820  -12.5890   16.1740 C.ar      1 SUB1        0.000
     23 C8         23.9800  -13.6070   16.9060 C.ar      1 SUB1        0.000
     24 C9         24.6000  -13.2920   18.0710 C.ar      1 SUB1        0.000
     25 C10        25.2020  -14.2860   18.7780 C.ar      1 SUB1        0.000
     26 C11        25.8250  -13.9730   20.0110 C.ar      1 SUB1        0.000
     27 C12        26.4100  -14.9440   20.7500 C.ar      1 SUB1        0.000
     28 C13        27.0350  -14.5860   21.9450 C.ar      1 SUB1        0.000
     29 C14        25.0930  -15.5810   18.3250 C.ar      1 SUB1        0.000
     30 C15        23.8440  -16.1090   18.4530 C.ar      1 SUB1        0.000
     31 C16        23.6420  -17.3960   17.9610 C.ar      1 SUB1        0.000
     32 C17        24.6940  -18.1930   17.3610 C.ar      1 SUB1        0.000
     33 C18        25.9290  -17.6610   17.2470 C.ar      1 SUB1        0.000
     34 C19        26.1200  -16.3230   17.7100 C.ar      1 SUB1        0.000
     35 C20        27.3480  -15.7820   17.5840 C.2       1 SUB1        0.000
     36 O4         28.3840  -16.5040   18.0780 O.co2     1 SUB1       -0.500
     37 O5         27.6730  -14.7020   16.9940 O.co2     1 SUB1       -0.500
@<TRIPOS>BOND
     1   14    1 1  
     2   15    2 1  
     3   19    3 1  
     4   21    4 1  
     5   22    5 1  
     6   23    6 1  
     7   27    7 1  
     8   28    8 1  
     9   30    9 1  
    10   31   10 1  
    11   32   11 1  
    12   33   12 1  
    13   14   13 1  
    14   13   15 ar 
    15   13   28 ar 
    16   15   16 ar 
    17   16   17 1  
    18   16   26 ar 
    19   17   18 1  
    20   18   19 ar 
    21   18   24 ar 
    22   19   20 ar 
    23   20   21 1  
    24   20   22 ar 
    25   22   23 ar 
    26   23   24 ar 
    27   24   25 ar 
    28   25   26 ar 
    29   25   29 ar 
    30   26   27 ar 
    31   27   28 ar 
    32   29   30 ar 
    33   29   34 ar 
    34   30   31 ar 
    35   31   32 ar 
    36   32   33 ar 
    37   33   34 ar 
    38   34   35 1  
    39   35   36 ar 
    40   35   37 ar 
@<TRIPOS>SUBSTRUCTURE
     1 SUB1        1 GROUP

