### Name: 4gr1_ligand
### Creating user name: arthur
### Creation time: Tue Nov 27 11:30:25 2001


@<TRIPOS>MOLECULE
4gr1_ligand
   70    69     1     0     0
SMALL
USER_CHARGES


@<TRIPOS>ATOM
      1 H1         66.3723   37.7630   23.3350 H         1 SUB1        0.000
      2 H2         66.5032   35.8315   21.8065 H         1 SUB1        0.000
      3 H3         65.3723   35.0321   22.6962 H         1 SUB1        0.000
      4 H4         66.8159   35.4392   23.3743 H         1 SUB1        0.000
      5 H5         64.7371   38.8630   21.9939 H         1 SUB1        0.000
      6 H6         63.7124   37.3942   21.8546 H         1 SUB1        0.000
      7 H7         65.8413   36.2993   20.8032 H         1 SUB1        0.000
      8 H8         66.4080   37.9896   20.5827 H         1 SUB1        0.000
      9 H9         65.0185   38.2494   19.0993 H         1 SUB1        0.000
     10 H10        63.6258   38.9273   18.5862 H         1 SUB1        0.000
     11 H11        62.0706   39.4918   17.8866 H         1 SUB1        0.000
     12 H12        63.8221   35.6118   16.9123 H         1 SUB1        0.000
     13 H13        64.1710   38.0089   17.9449 H         1 SUB1        0.000
     14 H14        61.4250   37.1429   17.1606 H         1 SUB1        0.000
     15 H15        61.7282   36.8349   18.9041 H         1 SUB1        0.000
     16 H16        69.3773   34.5596   17.5296 H         1 SUB1        0.000
     17 H17        68.2072   35.7061   19.2751 H         1 SUB1        0.000
     18 H18        68.0683   37.0601   18.3495 H         1 SUB1        0.000
     19 H19        69.5565   36.5215   18.8020 H         1 SUB1        0.000
     20 H20        67.5783   33.6970   16.3569 H         1 SUB1        0.000
     21 H21        66.9345   35.3157   15.9186 H         1 SUB1        0.000
     22 H22        66.1239   35.5873   18.2412 H         1 SUB1        0.000
     23 H23        66.7057   33.9294   18.6149 H         1 SUB1        0.000
     24 H24        64.4235   34.4679   18.2105 H         1 SUB1        0.000
     25 H25        64.0782   28.9698   18.9499 H         1 SUB1        0.000
     26 H26        63.0710   28.9735   17.4625 H         1 SUB1        0.000
     27 H27        62.6725   33.5592   17.5535 H         1 SUB1        0.000
     28 H28        62.3893   30.8959   16.4344 H         1 SUB1        0.000
     29 H29        61.6918   32.4573   15.0840 H         1 SUB1        0.000
     30 H30        63.0327   33.5516   14.6035 H         1 SUB1        0.000
     31 C1         64.7310   37.3000   24.6980 C.2       1 SUB1        0.000
     32 O1A        64.1880   36.3300   25.3360 O.co2     1 SUB1       -0.500
     33 O1B        64.8400   38.5300   25.3200 O.co2     1 SUB1       -0.500
     34 C2         65.4830   37.1300   23.1990 C.3       1 SUB1        0.000
     35 N2         66.1010   35.7280   22.7250 N.4       1 SUB1        1.000
     36 C3         64.7460   37.7660   21.9140 C.3       1 SUB1        0.000
     37 C4         65.5220   37.3430   20.6660 C.3       1 SUB1        0.000
     38 N4         64.9180   37.4110   19.6350 N.am      1 SUB1        0.000
     39 C5         63.3600   38.6140   16.6180 C.2       1 SUB1        0.000
     40 O5         63.2830   38.8890   15.6220 O.2       1 SUB1        0.000
     41 C6         63.1630   39.4840   17.7580 C.3       1 SUB1        0.000
     42 C7         63.5530   40.8980   18.0320 C.2       1 SUB1        0.000
     43 O7A        63.8260   41.0990   19.3220 O.co2     1 SUB1       -0.500
     44 O7B        63.4230   41.7950   17.0290 O.co2     1 SUB1       -0.500
     45 C          64.0720   36.4020   19.1100 C.2       1 SUB1        0.000
     46 O          63.6420   35.3900   19.7420 O.2       1 SUB1        0.000
     47 CA         63.4490   36.3850   17.6000 C.3       1 SUB1        0.000
     48 N          63.5500   37.6600   17.2430 N.am      1 SUB1        0.000
     49 CB         61.9030   36.4650   17.8830 C.3       1 SUB1        0.000
     50 SG         61.2240   34.8060   17.7080 S.3       1 SUB1        0.000
     51 C1'        69.3290   36.1310   16.0910 C.2       1 SUB1        0.000
     52 AO1'       69.4420   37.4250   16.1110 O.co2     1 SUB1       -0.500
     53 BO1'       69.6390   35.2810   15.0930 O.co2     1 SUB1       -0.500
     54 C2'        68.7010   35.3880   17.2720 C.3       1 SUB1        0.000
     55 N2'        68.6270   36.2410   18.5310 N.4       1 SUB1        1.000
     56 C3'        67.3410   34.7020   16.7360 C.3       1 SUB1        0.000
     57 C4'        66.2720   34.5750   17.8370 C.3       1 SUB1        0.000
     58 N4'        65.1400   34.1250   17.6030 N.am      1 SUB1        0.000
     59 C5'        63.5100   31.0150   18.2550 C.2       1 SUB1        0.000
     60 O5'        64.1620   31.7120   19.2200 O.2       1 SUB1        0.000
     61 C6'        63.2400   29.4610   18.4340 C.3       1 SUB1        0.000
     62 C7'        61.8710   29.4330   19.3610 C.2       1 SUB1        0.000
     63 AO7'       60.6820   29.1790   18.7080 O.co2     1 SUB1       -0.500
     64 BO7'       61.9930   29.7570   20.8140 O.co2     1 SUB1       -0.500
     65 C'         64.6920   33.2130   16.6270 C.2       1 SUB1        0.000
     66 O'         65.3910   32.6530   15.6460 O.2       1 SUB1        0.000
     67 CA'        63.0860   32.9490   16.7370 C.3       1 SUB1        0.000
     68 N'         62.9050   31.5000   17.0420 N.am      1 SUB1        0.000
     69 CB'        62.3230   33.2990   15.4050 C.3       1 SUB1        0.000
     70 SG'        61.3290   34.7040   15.8310 S.3       1 SUB1        0.000
@<TRIPOS>BOND
     1   34    1 1  
     2   35    2 1  
     3   35    3 1  
     4   35    4 1  
     5   36    5 1  
     6   36    6 1  
     7   37    7 1  
     8   37    8 1  
     9   38    9 1  
    10   41   10 1  
    11   41   11 1  
    12   47   12 1  
    13   48   13 1  
    14   49   14 1  
    15   49   15 1  
    16   54   16 1  
    17   55   17 1  
    18   55   18 1  
    19   55   19 1  
    20   56   20 1  
    21   56   21 1  
    22   57   22 1  
    23   57   23 1  
    24   58   24 1  
    25   61   25 1  
    26   61   26 1  
    27   67   27 1  
    28   68   28 1  
    29   69   29 1  
    30   69   30 1  
    31   31   32 ar 
    32   31   33 ar 
    33   31   34 1  
    34   34   35 1  
    35   34   36 1  
    36   36   37 1  
    37   37   38 1  
    38   38   45 am 
    39   39   40 2  
    40   39   41 1  
    41   41   42 1  
    42   42   43 ar 
    43   42   44 ar 
    44   45   46 2  
    45   45   47 1  
    46   47   48 1  
    47   47   49 1  
    48   48   39 am 
    49   49   50 1  
    50   50   70 1  
    51   51   52 ar 
    52   51   53 ar 
    53   54   51 1  
    54   54   55 1  
    55   56   54 1  
    56   57   56 1  
    57   58   57 1  
    58   65   58 am 
    59   59   60 2  
    60   59   61 1  
    61   61   62 1  
    62   62   63 ar 
    63   62   64 ar 
    64   65   66 2  
    65   67   65 1  
    66   67   68 1  
    67   69   67 1  
    68   68   59 am 
    69   70   69 1  
@<TRIPOS>SUBSTRUCTURE
     1 SUB1        1 GROUP

