### Name: 4sga_ligand
### Creating user name: arthur
### Creation time: Tue Nov 27 11:30:25 2001


@<TRIPOS>MOLECULE
4sga_ligand
   65    67     1     0     0
SMALL
USER_CHARGES


@<TRIPOS>ATOM
      1 HA        -20.9446   25.8971   20.5962 H         1 SUB1        0.000
      2 HB2       -20.3975   25.8781   18.3026 H         1 SUB1        0.000
      3 HB1       -18.7733   25.9987   19.0602 H         1 SUB1        0.000
      4 HG1       -18.6950   28.3853   18.7738 H         1 SUB1        0.000
      5 HG2       -19.4561   27.8249   17.2463 H         1 SUB1        0.000
      6 HD1       -20.6603   29.6718   18.8879 H         1 SUB1        0.000
      7 HD2       -21.6076   28.4914   17.9204 H         1 SUB1        0.000
      8 H         -19.1643   25.2709   21.7581 H         1 SUB1        0.000
      9 HA        -17.4582   27.3406   23.0459 H         1 SUB1        0.000
     10 HB3       -19.2784   25.4031   24.5893 H         1 SUB1        0.000
     11 HB2       -19.5015   27.1823   24.4837 H         1 SUB1        0.000
     12 HB1       -18.0598   26.5057   25.3144 H         1 SUB1        0.000
     13 HA        -14.5673   24.0269   22.9707 H         1 SUB1        0.000
     14 HB2       -12.7217   25.0772   23.8463 H         1 SUB1        0.000
     15 HB1       -13.3825   24.9414   25.5110 H         1 SUB1        0.000
     16 HG1       -13.6095   27.2347   25.3453 H         1 SUB1        0.000
     17 HG2       -13.5701   27.2048   23.5497 H         1 SUB1        0.000
     18 HD1       -15.9031   26.8785   25.4283 H         1 SUB1        0.000
     19 HD2       -15.8357   27.6301   23.7982 H         1 SUB1        0.000
     20 H         -14.7474   21.9334   23.6818 H         1 SUB1        0.000
     21 HA        -16.2803   21.4879   26.1739 H         1 SUB1        0.000
     22 HB2       -16.1964   19.0620   25.4645 H         1 SUB1        0.000
     23 HB1       -15.4639   19.6369   23.9284 H         1 SUB1        0.000
     24 HD1       -17.8673   21.8037   25.6267 H         1 SUB1        0.000
     25 HD2       -17.4307   18.6356   22.7676 H         1 SUB1        0.000
     26 HE1       -20.1508   22.3024   24.7571 H         1 SUB1        0.000
     27 HE2       -19.7232   19.1214   21.8729 H         1 SUB1        0.000
     28 HZ        -21.0788   20.9574   22.8953 H         1 SUB1        0.000
     29 H1        -23.0178   29.5878   19.6822 H         1 SUB1        0.000
     30 H2        -23.1455   30.0140   21.4225 H         1 SUB1        0.000
     31 H3        -24.2359   28.7716   20.7197 H         1 SUB1        0.000
     32 C         -22.2210   28.1290   21.0250 C.2       1 SUB1        0.000
     33 O         -22.2240   27.5230   22.1010 O.2       1 SUB1        0.000
     34 CH3       -23.2220   29.1970   20.6900 C.3       1 SUB1        0.000
     35 N         -21.3130   27.9230   19.9930 N.am      1 SUB1        0.000
     36 CA        -20.3880   26.7870   20.2670 C.3       1 SUB1        0.000
     37 C         -19.4680   27.2130   21.3800 C.2       1 SUB1        0.000
     38 O         -19.2570   28.4330   21.6630 O.2       1 SUB1        0.000
     39 CB        -19.7440   26.5000   18.9320 C.3       1 SUB1        0.000
     40 CG        -19.5700   27.8800   18.3390 C.3       1 SUB1        0.000
     41 CD        -20.8530   28.6030   18.7130 C.3       1 SUB1        0.000
     42 N         -18.9280   26.2020   22.0360 N.am      1 SUB1        0.000
     43 CA        -17.9930   26.3860   23.1590 C.3       1 SUB1        0.000
     44 C         -16.9970   25.2210   23.1840 C.2       1 SUB1        0.000
     45 O         -17.3090   24.1220   22.6980 O.2       1 SUB1        0.000
     46 CB        -18.7620   26.3680   24.4790 C.3       1 SUB1        0.000
     47 N         -15.8730   25.4930   23.8010 N.am      1 SUB1        0.000
     48 CA        -14.8060   24.4890   23.9400 C.3       1 SUB1        0.000
     49 C         -15.2650   23.4290   24.9180 C.2       1 SUB1        0.000
     50 O         -15.8060   23.8240   25.9940 O.2       1 SUB1        0.000
     51 CB        -13.6030   25.2550   24.4800 C.3       1 SUB1        0.000
     52 CG        -13.9880   26.7250   24.4470 C.3       1 SUB1        0.000
     53 CD        -15.4900   26.7860   24.4130 C.3       1 SUB1        0.000
     54 N         -15.1210   22.1650   24.5800 N.am      1 SUB1        0.000
     55 CA        -15.5020   21.0920   25.5050 C.3       1 SUB1        0.000
     56 C         -14.2710   20.7260   26.3970 C.2       1 SUB1        0.000
     57 O         -14.2590   19.5170   26.8480 O.co2     1 SUB1       -0.500
     58 CB        -16.1200   19.9100   24.7680 C.3       1 SUB1        0.000
     59 CG        -17.5120   20.2190   24.2200 C.ar      1 SUB1        0.000
     60 CD1       -18.2710   21.2290   24.8010 C.ar      1 SUB1        0.000
     61 CD2       -18.0220   19.4410   23.1880 C.ar      1 SUB1        0.000
     62 CE1       -19.5630   21.5050   24.3170 C.ar      1 SUB1        0.000
     63 CE2       -19.3190   19.7080   22.6900 C.ar      1 SUB1        0.000
     64 CZ        -20.0830   20.7480   23.2690 C.ar      1 SUB1        0.000
     65 OXT       -13.3260   21.5230   26.7990 O.co2     1 SUB1       -0.500
@<TRIPOS>BOND
     1   36    1 1  
     2   39    2 1  
     3   39    3 1  
     4   40    4 1  
     5   40    5 1  
     6   41    6 1  
     7   41    7 1  
     8   42    8 1  
     9   43    9 1  
    10   46   10 1  
    11   46   11 1  
    12   46   12 1  
    13   48   13 1  
    14   51   14 1  
    15   51   15 1  
    16   52   16 1  
    17   52   17 1  
    18   53   18 1  
    19   53   19 1  
    20   54   20 1  
    21   55   21 1  
    22   58   22 1  
    23   58   23 1  
    24   60   24 1  
    25   61   25 1  
    26   62   26 1  
    27   63   27 1  
    28   64   28 1  
    29   34   29 1  
    30   34   30 1  
    31   34   31 1  
    32   33   32 2  
    33   32   34 1  
    34   36   37 1  
    35   36   39 1  
    36   36   35 1  
    37   35   41 1  
    38   41   40 1  
    39   40   39 1  
    40   37   38 2  
    41   32   35 am 
    42   43   42 1  
    43   43   46 1  
    44   43   44 1  
    45   44   45 2  
    46   37   42 am 
    47   48   49 1  
    48   48   51 1  
    49   48   47 1  
    50   47   53 1  
    51   53   52 1  
    52   52   51 1  
    53   49   50 2  
    54   44   47 am 
    55   55   54 1  
    56   55   58 1  
    57   55   56 1  
    58   56   57 ar 
    59   56   65 ar 
    60   58   59 1  
    61   59   60 ar 
    62   59   61 ar 
    63   61   63 ar 
    64   63   64 ar 
    65   64   62 ar 
    66   62   60 ar 
    67   49   54 am 
@<TRIPOS>SUBSTRUCTURE
     1 SUB1        1 GROUP

