### Name: 4tmn_ligand
### Creating user name: arthur
### Creation time: Tue Nov 27 11:30:25 2001


@<TRIPOS>MOLECULE
4tmn_ligand
   68    69     1     0     0
SMALL
USER_CHARGES


@<TRIPOS>ATOM
      1 H          50.7876   18.2923   -3.9778 H         1 SUB1        0.000
      2 HA         53.6029   19.1318   -3.7643 H         1 SUB1        0.000
      3 HB2        51.9096   17.6711   -1.6861 H         1 SUB1        0.000
      4 HB1        52.1333   19.4493   -1.8064 H         1 SUB1        0.000
      5 HG         54.4535   17.5012   -1.3646 H         1 SUB1        0.000
      6 C          50.4290   20.3870   -8.5740 C.2       1 SUB1        0.000
      7 O          49.8980   21.2520   -7.7970 O.2       1 SUB1        0.000
      8 OA         50.7950   20.5820   -9.8890 O.3       1 SUB1        0.000
      9 CB         51.0060   21.9060  -10.4060 C.3       1 SUB1        0.000
     10 CG         50.5090   21.7670  -11.8010 C.ar      1 SUB1        0.000
     11 CD1        50.4180   20.6180  -12.5940 C.ar      1 SUB1        0.000
     12 CD2        50.0170   22.8810  -12.3620 C.ar      1 SUB1        0.000
     13 CE1        49.8730   20.6070  -13.9050 C.ar      1 SUB1        0.000
     14 CE2        49.5010   22.7460  -13.6670 C.ar      1 SUB1        0.000
     15 CZ         49.3630   21.6920  -14.4780 C.ar      1 SUB1        0.000
     16 N          50.7810   19.1360   -8.2400 N.am      1 SUB1        0.000
     17 CA         50.6650   18.6430   -6.8390 C.3       1 SUB1        0.000
     18 P          52.0320   19.1530   -6.0640 P.3       1 SUB1        0.000
     19 OP1        53.3330   18.5400   -6.7090 O.co2     1 SUB1       -0.500
     20 OP2        52.1080   20.7320   -5.9400 O.co2     1 SUB1       -0.500
     21 CB         50.6690   17.1570   -6.9730 C.3       1 SUB1        0.000
     22 CG         49.3730   16.7970   -7.6700 C.ar      1 SUB1        0.000
     23 CD1        48.2170   16.7880   -6.8790 C.ar      1 SUB1        0.000
     24 CD2        49.3280   16.5600   -9.0210 C.ar      1 SUB1        0.000
     25 CE1        46.9720   16.4870   -7.4460 C.ar      1 SUB1        0.000
     26 CE2        48.0930   16.2460   -9.6070 C.ar      1 SUB1        0.000
     27 CZ         46.9150   16.2080   -8.8060 C.ar      1 SUB1        0.000
     28 N          51.7070   18.5030   -4.3100 N.am      1 SUB1        0.000
     29 CA         52.9050   18.3320   -3.4760 C.3       1 SUB1        0.000
     30 C          53.6360   16.9900   -3.6430 C.2       1 SUB1        0.000
     31 O          54.8700   16.9190   -3.6050 O.2       1 SUB1        0.000
     32 CB         52.6060   18.4710   -1.9780 C.3       1 SUB1        0.000
     33 CG         53.8370   18.3750   -1.1070 C.3       1 SUB1        0.000
     34 CD1        54.6920   19.6480   -1.2450 C.3       1 SUB1        0.000
     35 CD2        53.1860   18.1970    0.2480 C.3       1 SUB1        0.000
     36 N          52.8650   15.9260   -3.7510 N.am      1 SUB1        0.000
     37 CA         53.3430   14.5330   -3.8630 C.3       1 SUB1        0.000
     38 C          52.6830   13.8220   -5.0710 C.2       1 SUB1        0.000
     39 O          51.6740   14.3100   -5.6210 O.co2     1 SUB1       -0.500
     40 CB         53.0150   13.8090   -2.5700 C.3       1 SUB1        0.000
     41 OXT        53.1340   12.7780   -5.6680 O.co2     1 SUB1       -0.500
     42 HD13       55.0116   19.7633   -2.2912 H         1 SUB1        0.000
     43 HD12       55.5778   19.5668   -0.5978 H         1 SUB1        0.000
     44 HD11       54.0975   20.5234   -0.9446 H         1 SUB1        0.000
     45 HD23       52.5584   19.0724    0.4711 H         1 SUB1        0.000
     46 HD22       53.9646   18.0981    1.0187 H         1 SUB1        0.000
     47 HD21       52.5620   17.2912    0.2389 H         1 SUB1        0.000
     48 H          51.8761   16.0742   -3.7576 H         1 SUB1        0.000
     49 HA         54.4333   14.5362   -4.0085 H         1 SUB1        0.000
     50 HB3        51.9270   13.8219   -2.4084 H         1 SUB1        0.000
     51 HB2        53.5163   14.3126   -1.7304 H         1 SUB1        0.000
     52 HB1        53.3639   12.7678   -2.6341 H         1 SUB1        0.000
     53 H1         52.0712   22.1797  -10.3852 H         1 SUB1        0.000
     54 H2         50.4244   22.6528   -9.8456 H         1 SUB1        0.000
     55 H3         50.7842   19.6835  -12.1844 H         1 SUB1        0.000
     56 H4         50.0160   23.8318  -11.8415 H         1 SUB1        0.000
     57 H5         49.8730   19.6763  -14.4607 H         1 SUB1        0.000
     58 H6         49.1478   23.6768  -14.0959 H         1 SUB1        0.000
     59 H7         48.9026   21.7187  -15.4590 H         1 SUB1        0.000
     60 H8         51.1290   18.5208   -8.9474 H         1 SUB1        0.000
     61 H9         49.7572   19.0055   -6.3346 H         1 SUB1        0.000
     62 H10        50.7136   16.6839   -5.9809 H         1 SUB1        0.000
     63 H11        51.5300   16.8298   -7.5743 H         1 SUB1        0.000
     64 H12        48.2863   17.0154   -5.8214 H         1 SUB1        0.000
     65 H13        50.2281   16.6143   -9.6226 H         1 SUB1        0.000
     66 H14        46.0745   16.4721   -6.8383 H         1 SUB1        0.000
     67 H15        48.0347   16.0324  -10.6682 H         1 SUB1        0.000
     68 H16        45.9640   15.9587   -9.2627 H         1 SUB1        0.000
@<TRIPOS>BOND
     1   29   28 1  
     2   29   32 1  
     3   29   30 1  
     4   30   31 2  
     5   32   33 1  
     6   33   34 1  
     7   33   35 1  
     8   37   36 1  
     9   37   40 1  
    10   37   38 1  
    11   38   39 ar 
    12   38   41 ar 
    13   30   36 am 
    14    6    7 2  
    15    6    8 1  
    16    6   16 am 
    17    8    9 1  
    18    9   10 1  
    19   10   11 ar 
    20   10   12 ar 
    21   11   13 ar 
    22   12   14 ar 
    23   13   15 ar 
    24   14   15 ar 
    25   16   17 1  
    26   17   18 1  
    27   17   21 1  
    28   18   19 ar 
    29   18   20 ar 
    30   18   28 1  
    31   28    1 1  
    32   29    2 1  
    33   21   22 1  
    34   22   23 ar 
    35   22   24 ar 
    36   23   25 ar 
    37   24   26 ar 
    38   25   27 ar 
    39   26   27 ar 
    40   32    3 1  
    41   32    4 1  
    42   33    5 1  
    43   34   42 1  
    44   34   43 1  
    45   34   44 1  
    46   35   45 1  
    47   35   46 1  
    48   35   47 1  
    49   36   48 1  
    50   37   49 1  
    51   40   50 1  
    52   40   51 1  
    53   40   52 1  
    54    9   53 1  
    55    9   54 1  
    56   11   55 1  
    57   12   56 1  
    58   13   57 1  
    59   14   58 1  
    60   15   59 1  
    61   16   60 1  
    62   17   61 1  
    63   21   62 1  
    64   21   63 1  
    65   23   64 1  
    66   24   65 1  
    67   25   66 1  
    68   26   67 1  
    69   27   68 1  
@<TRIPOS>SUBSTRUCTURE
     1 SUB1        1 GROUP

