### Name: 4ts1_ligand
### Creating user name: arthur
### Creation time: Tue Nov 27 11:30:25 2001


@<TRIPOS>MOLECULE
4ts1_ligand
   24    24     1     0     0
SMALL
USER_CHARGES


@<TRIPOS>ATOM
      1 H          15.5171    1.6058   27.4348 H         1 SUB1        0.000
      2 HA         14.8042    3.1461   29.6005 H         1 SUB1        0.000
      3 HB1        12.5590    3.9195   28.9951 H         1 SUB1        0.000
      4 HB2        12.7739    3.3403   27.3085 H         1 SUB1        0.000
      5 HD1        14.5882    5.6051   29.8110 H         1 SUB1        0.000
      6 HD2        13.2867    4.9421   25.7811 H         1 SUB1        0.000
      7 HE1        15.5613    7.7644   29.1311 H         1 SUB1        0.000
      8 HE2        14.1605    7.1692   25.1112 H         1 SUB1        0.000
      9 HH         15.8405    9.2331   27.3829 H         1 SUB1        0.000
     10 ****       16.3404    2.8313   28.1627 H         1 SUB1        0.000
     11 ****       15.3165    3.1547   26.9151 H         1 SUB1        0.000
     12 N          15.4720    2.5710   27.7220 N.4       1 SUB1        1.000
     13 CA         14.3700    2.7470   28.6720 C.3       1 SUB1        0.000
     14 C          13.6960    1.4030   29.0050 C.2       1 SUB1        0.000
     15 O          12.9010    1.4090   29.9760 O.co2     1 SUB1       -0.500
     16 CB         13.2860    3.7660   28.1840 C.3       1 SUB1        0.000
     17 CG         13.8610    5.0950   27.8010 C.ar      1 SUB1        0.000
     18 CD1        14.5160    5.9320   28.7800 C.ar      1 SUB1        0.000
     19 CD2        13.7710    5.5630   26.5260 C.ar      1 SUB1        0.000
     20 CE1        15.0490    7.1460   28.4030 C.ar      1 SUB1        0.000
     21 CE2        14.2770    6.8150   26.1290 C.ar      1 SUB1        0.000
     22 CZ         14.9270    7.5770   27.0800 C.ar      1 SUB1        0.000
     23 OH         15.4140    8.7930   26.6570 O.3       1 SUB1        0.000
     24 OXT        13.9160    0.4080   28.3030 O.co2     1 SUB1       -0.500
@<TRIPOS>BOND
     1   12    1 1  
     2   13    2 1  
     3   16    3 1  
     4   16    4 1  
     5   18    5 1  
     6   19    6 1  
     7   20    7 1  
     8   21    8 1  
     9   23    9 1  
    10   12   10 1  
    11   12   11 1  
    12   13   12 1  
    13   13   16 1  
    14   13   14 1  
    15   14   15 ar 
    16   14   24 ar 
    17   16   17 1  
    18   17   18 ar 
    19   17   19 ar 
    20   19   21 ar 
    21   21   22 ar 
    22   22   23 1  
    23   22   20 ar 
    24   20   18 ar 
@<TRIPOS>SUBSTRUCTURE
     1 SUB1        1 GROUP

