### Name: 4xia_ligand
### Creating user name: arthur
### Creation time: Tue Nov 27 11:30:25 2001


@<TRIPOS>MOLECULE
4xia_ligand
   26    25     1     0     0
SMALL
USER_CHARGES


@<TRIPOS>ATOM
      1 H1         25.0951   73.7077    8.4764 H         1 SUB1        0.000
      2 H2         25.3016   72.6809    9.9357 H         1 SUB1        0.000
      3 H3         27.2827   74.7397    8.8523 H         1 SUB1        0.000
      4 H4         25.2451   75.6717   10.0810 H         1 SUB1        0.000
      5 H5         27.7343   76.4649    9.5805 H         1 SUB1        0.000
      6 H6         26.1479   77.4515   12.0476 H         1 SUB1        0.000
      7 H7         27.3704   79.6285   11.0190 H         1 SUB1        0.000
      8 H8         28.6274   78.3909   10.6798 H         1 SUB1        0.000
      9 H9         25.8964   71.5736    7.9669 H         1 SUB1        0.000
     10 H10        28.1762   72.7484    9.6971 H         1 SUB1        0.000
     11 H11        25.0076   74.1247   11.8571 H         1 SUB1        0.000
     12 H12        28.7617   75.1637   11.2549 H         1 SUB1        0.000
     13 H13        25.1823   77.3980    9.9444 H         1 SUB1        0.000
     14 H14        28.9054   79.4232   12.7004 H         1 SUB1        0.000
     15 C1         25.8260   73.1840    9.1100 C.3       1 SUB1        0.000
     16 C2         26.8090   74.1960    9.6830 C.3       1 SUB1        0.000
     17 C3         26.1380   75.2610   10.5750 C.3       1 SUB1        0.000
     18 C4         27.3120   76.3360   10.5880 C.3       1 SUB1        0.000
     19 C5         26.7040   77.6220   11.1140 C.3       1 SUB1        0.000
     20 C6         27.7720   78.6500   11.3210 C.3       1 SUB1        0.000
     21 O1         26.5220   72.1970    8.3170 O.3       1 SUB1        0.000
     22 O2         27.8270   73.3680   10.3270 O.3       1 SUB1        0.000
     23 O3         25.7080   74.7590   11.9550 O.3       1 SUB1        0.000
     24 O4         28.3440   75.9690   11.5370 O.3       1 SUB1        0.000
     25 O5         25.8640   78.0450   10.0830 O.3       1 SUB1        0.000
     26 O6         28.2330   78.7540   12.6500 O.3       1 SUB1        0.000
@<TRIPOS>BOND
     1   15    1 1  
     2   15    2 1  
     3   16    3 1  
     4   17    4 1  
     5   18    5 1  
     6   19    6 1  
     7   20    7 1  
     8   20    8 1  
     9   21    9 1  
    10   22   10 1  
    11   23   11 1  
    12   24   12 1  
    13   25   13 1  
    14   26   14 1  
    15   15   16 1  
    16   15   21 1  
    17   16   17 1  
    18   16   22 1  
    19   17   18 1  
    20   17   23 1  
    21   18   19 1  
    22   18   24 1  
    23   19   20 1  
    24   19   25 1  
    25   20   26 1  
@<TRIPOS>SUBSTRUCTURE
     1 SUB1        1 GROUP

