### Name: 5acn_ligand
### Creating user name: arthur
### Creation time: Tue Nov 27 11:30:25 2001


@<TRIPOS>MOLECULE
5acn_ligand
   17    16     1     0     0
SMALL
USER_CHARGES


@<TRIPOS>ATOM
      1 H1         75.3342   41.7494   28.4873 H         1 SUB1        0.000
      2 H2         74.9611   43.3038   29.3066 H         1 SUB1        0.000
      3 H3         76.1090   42.6534   31.3031 H         1 SUB1        0.000
      4 H4         73.9905   41.6269   31.3851 H         1 SUB1        0.000
      5 H5         75.2032   40.4880   32.0625 H         1 SUB1        0.000
      6 C1         76.9620   43.1660   28.5100 C.2       1 SUB1        0.000
      7 O1         77.9230   43.6710   29.1470 O.co2     1 SUB1       -0.500
      8 O2         77.0390   43.0840   27.2660 O.co2     1 SUB1       -0.500
      9 C2         75.7200   42.5190   29.1720 C.3       1 SUB1        0.000
     10 C3         75.9700   41.8380   30.5780 C.3       1 SUB1        0.000
     11 C4         74.8170   40.9440   31.1390 C.3       1 SUB1        0.000
     12 C5         74.1890   39.7810   30.3080 C.2       1 SUB1        0.000
     13 O3         74.6410   38.6470   30.4710 O.co2     1 SUB1       -0.500
     14 O4         73.2080   39.9240   29.5290 O.co2     1 SUB1       -0.500
     15 C6         77.2860   41.0370   30.5070 C.2       1 SUB1        0.000
     16 O5         77.6500   40.4450   29.4560 O.co2     1 SUB1       -0.500
     17 O6         78.0170   41.0590   31.5200 O.co2     1 SUB1       -0.500
@<TRIPOS>BOND
     1    9    1 1  
     2    9    2 1  
     3   10    3 1  
     4   11    4 1  
     5   11    5 1  
     6    6    7 ar 
     7    6    8 ar 
     8    6    9 1  
     9    9   10 1  
    10   10   11 1  
    11   10   15 1  
    12   11   12 1  
    13   12   13 ar 
    14   12   14 ar 
    15   15   16 ar 
    16   15   17 ar 
@<TRIPOS>SUBSTRUCTURE
     1 SUB1        1 GROUP

