### Name: 5icd_ligand
### Creating user name: arthur
### Creation time: Tue Nov 27 11:30:25 2001


@<TRIPOS>MOLECULE
5icd_ligand
   18    17     1     0     0
SMALL
USER_CHARGES


@<TRIPOS>ATOM
      1 H1         86.2459   66.9011    1.2460 H         1 SUB1        0.000
      2 H2         85.2292   68.9740    1.0815 H         1 SUB1        0.000
      3 H3         84.8725   65.1332    2.3179 H         1 SUB1        0.000
      4 H4         85.0204   66.2480   -0.3833 H         1 SUB1        0.000
      5 H5         83.5721   65.2088   -0.1613 H         1 SUB1        0.000
      6 C1         85.5280   67.4300    3.1660 C.2       1 SUB1        0.000
      7 O1         86.3690   66.7290    3.7690 O.co2     1 SUB1       -0.500
      8 O2         84.8610   68.3280    3.6820 O.co2     1 SUB1       -0.500
      9 C2         85.2770   67.1100    1.7230 C.3       1 SUB1        0.000
     10 O7         84.6730   68.2070    1.0120 O.3       1 SUB1        0.000
     11 C3         84.4640   65.9050    1.6490 C.3       1 SUB1        0.000
     12 C4         84.5720   65.4510    0.2280 C.3       1 SUB1        0.000
     13 C5         85.4450   64.2250    0.1840 C.2       1 SUB1        0.000
     14 O3         86.5330   64.2730   -0.4110 O.co2     1 SUB1       -0.500
     15 O4         85.1090   63.2140    0.7690 O.co2     1 SUB1       -0.500
     16 C6         82.9770   66.2000    2.0730 C.2       1 SUB1        0.000
     17 O5         82.6970   66.1530    3.2830 O.co2     1 SUB1       -0.500
     18 O6         82.1400   66.3840    1.1380 O.co2     1 SUB1       -0.500
@<TRIPOS>BOND
     1    9    1 1  
     2   10    2 1  
     3   11    3 1  
     4   12    4 1  
     5   12    5 1  
     6    6    7 ar 
     7    6    8 ar 
     8    6    9 1  
     9    9   10 1  
    10    9   11 1  
    11   11   12 1  
    12   11   16 1  
    13   12   13 1  
    14   13   14 ar 
    15   13   15 ar 
    16   16   17 ar 
    17   16   18 ar 
@<TRIPOS>SUBSTRUCTURE
     1 SUB1        1 GROUP

