### Name: 5ldh_ligand
### Creating user name: arthur
### Creation time: Tue Nov 27 11:30:30 2001


@<TRIPOS>MOLECULE
5ldh_ligand
   83    87     1     0     0
SMALL
USER_CHARGES


@<TRIPOS>ATOM
      1 H1          2.7165   26.2254    8.0496 H         1 SUB1        0.000
      2 H2          2.5117   27.9973    8.2624 H         1 SUB1        0.000
      3 H3          1.6182   25.8039    9.9422 H         1 SUB1        0.000
      4 H4          1.2273   28.8445   10.0246 H         1 SUB1        0.000
      5 H5         -0.9265   28.1681    9.6586 H         1 SUB1        0.000
      6 H6          0.2003   28.5593   12.1999 H         1 SUB1        0.000
      7 H7         -0.2419   26.4230   12.9585 H         1 SUB1        0.000
      8 H8          2.0258   26.5925   13.0229 H         1 SUB1        0.000
      9 H9          3.1233   29.8698   11.1953 H         1 SUB1        0.000
     10 H10         4.7364   31.8292   16.8805 H         1 SUB1        0.000
     11 H11         4.7224   32.2319   15.1426 H         1 SUB1        0.000
     12 H12         2.8427   27.7689   17.2457 H         1 SUB1        0.000
     13 H13         7.9236   23.5064    7.4588 H         1 SUB1        0.000
     14 H14         7.2979   24.6385    8.7052 H         1 SUB1        0.000
     15 H15         9.2265   23.9412    9.6975 H         1 SUB1        0.000
     16 H16         9.6664   26.5569    8.6094 H         1 SUB1        0.000
     17 H17        11.0619   26.5602   10.4612 H         1 SUB1        0.000
     18 H18        11.3758   25.8373    7.1047 H         1 SUB1        0.000
     19 H19        13.3997   26.0090    8.1237 H         1 SUB1        0.000
     20 H20        12.0416   23.6512    9.1632 H         1 SUB1        0.000
     21 H21        12.7865   21.8366    8.1923 H         1 SUB1        0.000
     22 H22        14.7558   18.7853    7.9736 H         1 SUB1        0.000
     23 H23        13.8871   20.1415    8.6108 H         1 SUB1        0.000
     24 H24        13.8518   21.6883    4.4308 H         1 SUB1        0.000
     25 H25        15.2726   22.4385    5.2339 H         1 SUB1        0.000
     26 H26        12.3800   25.1166    5.8469 H         1 SUB1        0.000
     27 H27        13.7976   25.3951    3.9775 H         1 SUB1        0.000
     28 H28        13.2814   23.9760    3.0048 H         1 SUB1        0.000
     29 H29        16.0632   24.7897    3.9128 H         1 SUB1        0.000
     30 H30        15.5076   24.2144    2.3043 H         1 SUB1        0.000
     31 H31        15.0329   22.1806    4.3329 H         1 SUB1        0.000
     32 H32        17.2824   21.8015    4.7466 H         1 SUB1        0.000
     33 AP          5.3160   27.3830    7.9140 P.3       1 SUB1        0.000
     34 AO1         6.4720   28.1560    8.4230 O.co2     1 SUB1       -0.500
     35 AO2         4.6460   27.9310    6.7140 O.co2     1 SUB1       -0.500
     36 AO5'        4.2440   27.1880    9.0860 O.3       1 SUB1        0.000
     37 AC5'        2.8500   27.0680    8.7440 C.3       1 SUB1        0.000
     38 AC4'        2.0290   26.8230    9.9940 C.3       1 SUB1        0.000
     39 AO4'        2.8690   26.9860   11.1730 O.3       1 SUB1        0.000
     40 AC3'        0.8990   27.8200   10.2540 C.3       1 SUB1        0.000
     41 AO3'       -0.2470   27.5310    9.4720 O.3       1 SUB1        0.000
     42 AC2'        0.6610   27.6650   11.7550 C.3       1 SUB1        0.000
     43 AO2'       -0.1040   26.5030   12.0220 O.3       1 SUB1        0.000
     44 AC1'        2.0710   27.3960   12.2730 C.3       1 SUB1        0.000
     45 AN9         2.7140   28.5900   12.8880 N.pl3     1 SUB1        0.000
     46 AC8         3.1780   29.7160   12.2720 C.2       1 SUB1        0.000
     47 AN7         3.6900   30.5860   13.0860 N.2       1 SUB1        0.000
     48 AC5         3.5580   29.9950   14.3350 C.2       1 SUB1        0.000
     49 AC6         3.9100   30.4070   15.6420 C.2       1 SUB1        0.000
     50 AN6         4.5020   31.5800   15.9090 N.pl3     1 SUB1        0.000
     51 AN1         3.6310   29.5680   16.6560 N.2       1 SUB1        0.000
     52 AC2         3.0430   28.4040   16.3840 C.2       1 SUB1        0.000
     53 AN3         2.6700   27.9130   15.2220 N.2       1 SUB1        0.000
     54 AC4         2.9610   28.7730   14.2240 C.2       1 SUB1        0.000
     55 O3          5.7590   25.8700    7.6400 O.3       1 SUB1        0.000
     56 NP          6.7520   26.0520    6.3990 P.3       1 SUB1        0.000
     57 NO1         6.8700   27.4880    6.0630 O.co2     1 SUB1       -0.500
     58 NO2         6.3350   25.1590    5.2950 O.co2     1 SUB1       -0.500
     59 NO5'        8.1320   25.5310    7.0190 O.3       1 SUB1        0.000
     60 NC5'        8.1050   24.4580    7.9800 C.3       1 SUB1        0.000
     61 NC4'        9.4310   24.3850    8.7120 C.3       1 SUB1        0.000
     62 NO4'       10.3370   23.5260    7.9630 O.3       1 SUB1        0.000
     63 NC3'       10.2280   25.6700    8.9380 C.3       1 SUB1        0.000
     64 NO3'       10.5660   25.7640   10.3110 O.3       1 SUB1        0.000
     65 NC2'       11.5180   25.4910    8.1390 C.3       1 SUB1        0.000
     66 NO2'       12.6420   26.1690    8.6740 O.3       1 SUB1        0.000
     67 NC1'       11.6660   23.9740    8.1810 C.3       1 SUB1        0.000
     68 NN1        12.5390   23.4390    7.1330 N.pl3     1 SUB1        0.000
     69 NC2        13.0330   22.3570    7.2680 C.2       1 SUB1        0.000
     70 NC3        13.8780   21.6790    6.4020 C.2       1 SUB1        0.000
     71 NC7        14.4530   20.3160    6.6570 C.2       1 SUB1        0.000
     72 NO7        15.0380   19.7220    5.7620 O.2       1 SUB1        0.000
     73 NN7        14.3570   19.6940    7.8500 N.am      1 SUB1        0.000
     74 NC4        14.1790   22.3250    5.2660 C.3       1 SUB1        0.000
     75 NC5        13.6330   23.5700    5.0690 C.2       1 SUB1        0.000
     76 NC6        12.8100   24.1290    6.0070 C.2       1 SUB1        0.000
     77 CGS        13.9500   24.3190    3.8080 C.3       1 SUB1        0.000
     78 CBS        15.4120   24.0730    3.3910 C.3       1 SUB1        0.000
     79 CAS        15.8350   22.6580    3.7510 C.3       1 SUB1        0.000
     80 OAS        17.0250   22.6890    4.5260 O.3       1 SUB1        0.000
     81 CS         16.0900   21.8570    2.5080 C.2       1 SUB1        0.000
     82 O1S        17.2790   21.4820    2.2210 O.co2     1 SUB1       -0.500
     83 O2S        15.1170   21.5480    1.7360 O.co2     1 SUB1       -0.500
@<TRIPOS>BOND
     1   37    1 1  
     2   37    2 1  
     3   38    3 1  
     4   40    4 1  
     5   41    5 1  
     6   42    6 1  
     7   43    7 1  
     8   44    8 1  
     9   46    9 1  
    10   50   10 1  
    11   50   11 1  
    12   52   12 1  
    13   60   13 1  
    14   60   14 1  
    15   61   15 1  
    16   63   16 1  
    17   64   17 1  
    18   65   18 1  
    19   66   19 1  
    20   67   20 1  
    21   69   21 1  
    22   73   22 1  
    23   73   23 1  
    24   74   24 1  
    25   74   25 1  
    26   76   26 1  
    27   77   27 1  
    28   77   28 1  
    29   78   29 1  
    30   78   30 1  
    31   79   31 1  
    32   80   32 1  
    33   33   34 ar 
    34   33   35 ar 
    35   33   36 1  
    36   33   55 1  
    37   36   37 1  
    38   37   38 1  
    39   38   39 1  
    40   38   40 1  
    41   39   44 1  
    42   40   41 1  
    43   40   42 1  
    44   42   43 1  
    45   42   44 1  
    46   44   45 1  
    47   45   46 1  
    48   45   54 1  
    49   46   47 2  
    50   47   48 1  
    51   48   49 1  
    52   48   54 2  
    53   49   50 1  
    54   49   51 2  
    55   51   52 1  
    56   52   53 2  
    57   53   54 1  
    58   55   56 1  
    59   56   57 ar 
    60   56   58 ar 
    61   56   59 1  
    62   59   60 1  
    63   60   61 1  
    64   61   62 1  
    65   61   63 1  
    66   62   67 1  
    67   63   64 1  
    68   63   65 1  
    69   65   66 1  
    70   65   67 1  
    71   67   68 1  
    72   68   69 1  
    73   68   76 1  
    74   69   70 2  
    75   70   71 1  
    76   70   74 1  
    77   71   72 2  
    78   71   73 am 
    79   74   75 1  
    80   75   76 2  
    81   75   77 1  
    82   77   78 1  
    83   78   79 1  
    84   79   80 1  
    85   79   81 1  
    86   81   82 ar 
    87   81   83 ar 
@<TRIPOS>SUBSTRUCTURE
     1 SUB1        1 GROUP

