### Name: 5tim_ligand
### Creating user name: arthur
### Creation time: Tue Nov 27 11:30:26 2001


@<TRIPOS>MOLECULE
5tim_ligand
   16    16     1     0     0
SMALL
USER_CHARGES


@<TRIPOS>ATOM
      1 ****       53.4299   45.9134   17.0998 H         1 SUB1        0.000
      2 ****       54.5870   44.5452   17.2242 H         1 SUB1        0.000
      3 ****       55.4514   46.1910   15.6471 H         1 SUB1        0.000
      4 ****       57.4926   46.4644   16.8158 H         1 SUB1        0.000
      5 ****       56.2939   48.4252   16.2227 H         1 SUB1        0.000
      6 ****       54.2675   49.5461   16.1765 H         1 SUB1        0.000
      7 ****       55.2695   49.7358   18.0858 H         1 SUB1        0.000
      8 ****       56.4221   48.4605   18.6073 H         1 SUB1        0.000
      9 S1         54.4730   45.8130   19.2610 S.3       1 SUB1        0.000
     10 C1         54.4230   45.6070   17.4600 C.3       1 SUB1        0.000
     11 C2         55.5120   46.4600   16.7120 C.3       1 SUB1        0.000
     12 O2         56.7840   45.9860   17.2300 O.3       1 SUB1        0.000
     13 C3         55.4080   48.0530   16.7580 C.3       1 SUB1        0.000
     14 O3         54.2540   48.5990   16.1040 O.3       1 SUB1        0.000
     15 C4         55.4390   48.6510   18.1520 C.3       1 SUB1        0.000
     16 S4         54.1040   47.8800   19.2170 S.3       1 SUB1        0.000
@<TRIPOS>BOND
     1    9   16 1  
     2   10    1 1  
     3   10    2 1  
     4   11    3 1  
     5   12    4 1  
     6   13    5 1  
     7   14    6 1  
     8   15    7 1  
     9   15    8 1  
    10    9   10 1  
    11   10   11 1  
    12   11   12 1  
    13   11   13 1  
    14   13   14 1  
    15   13   15 1  
    16   15   16 1  
@<TRIPOS>SUBSTRUCTURE
     1 SUB1        1 GROUP

