### Name: 5xia_ligand
### Creating user name: arthur
### Creation time: Tue Nov 27 11:30:26 2001


@<TRIPOS>MOLECULE
5xia_ligand
   22    21     1     0     0
SMALL
USER_CHARGES


@<TRIPOS>ATOM
      1 H1         25.2976   74.1251    8.2050 H         1 SUB1        0.000
      2 H2         25.3012   73.1008    9.6806 H         1 SUB1        0.000
      3 H3         27.5166   74.9922    8.7490 H         1 SUB1        0.000
      4 H4         25.4429   76.0030    9.9098 H         1 SUB1        0.000
      5 H5         27.7698   76.8148    9.7307 H         1 SUB1        0.000
      6 H6         27.7104   78.7293   11.0890 H         1 SUB1        0.000
      7 H7         26.2775   78.0731   11.9510 H         1 SUB1        0.000
      8 H8         25.9877   71.9260    7.7703 H         1 SUB1        0.000
      9 H9         28.1843   72.9530    9.6462 H         1 SUB1        0.000
     10 H10        25.2444   74.3358   11.5277 H         1 SUB1        0.000
     11 H11        28.5984   75.3304   11.2742 H         1 SUB1        0.000
     12 H12        25.6967   79.4692   10.1768 H         1 SUB1        0.000
     13 C1         25.9300   73.5520    8.8990 C.3       1 SUB1        0.000
     14 C2         26.9500   74.4790    9.5400 C.3       1 SUB1        0.000
     15 C3         26.3100   75.5810   10.4390 C.3       1 SUB1        0.000
     16 C4         27.2970   76.6820   10.7150 C.3       1 SUB1        0.000
     17 C5         26.8320   78.0730   11.0010 C.3       1 SUB1        0.000
     18 O1         26.6230   72.5070    8.1720 O.3       1 SUB1        0.000
     19 O2         27.8300   73.5970   10.2480 O.3       1 SUB1        0.000
     20 O3         25.8690   75.0330   11.6900 O.3       1 SUB1        0.000
     21 O4         28.3720   76.2180   11.5260 O.3       1 SUB1        0.000
     22 O5         25.9690   78.5860    9.9570 O.3       1 SUB1        0.000
@<TRIPOS>BOND
     1   13    1 1  
     2   13    2 1  
     3   14    3 1  
     4   15    4 1  
     5   16    5 1  
     6   17    6 1  
     7   17    7 1  
     8   18    8 1  
     9   19    9 1  
    10   20   10 1  
    11   21   11 1  
    12   22   12 1  
    13   13   14 1  
    14   13   18 1  
    15   14   15 1  
    16   14   19 1  
    17   15   16 1  
    18   15   20 1  
    19   16   17 1  
    20   16   21 1  
    21   17   22 1  
@<TRIPOS>SUBSTRUCTURE
     1 SUB1        1 GROUP

