### Name: 6acn_ligand
### Creating user name: arthur
### Creation time: Tue Nov 27 11:30:27 2001


@<TRIPOS>MOLECULE
6acn_ligand
   17    16     1     0     0
SMALL
USER_CHARGES


@<TRIPOS>ATOM
      1 H1         75.5374   41.7425   28.7086 H         1 SUB1        0.000
      2 H2         74.9250   43.2413   29.4867 H         1 SUB1        0.000
      3 H3         76.3670   42.8443   31.4605 H         1 SUB1        0.000
      4 H4         74.1317   41.8416   31.5138 H         1 SUB1        0.000
      5 H5         75.3105   40.7893   32.3680 H         1 SUB1        0.000
      6 C1         76.9040   43.3990   28.6670 C.2       1 SUB1        0.000
      7 O1         77.5990   44.2670   29.2710 O.co2     1 SUB1       -0.500
      8 O2         77.0780   43.1360   27.4660 O.co2     1 SUB1       -0.500
      9 C2         75.8000   42.5860   29.3640 C.3       1 SUB1        0.000
     10 C3         76.1690   41.9990   30.7850 C.3       1 SUB1        0.000
     11 C4         74.9870   41.1620   31.3850 C.3       1 SUB1        0.000
     12 C5         74.4990   39.9530   30.5690 C.2       1 SUB1        0.000
     13 O3         74.9770   38.8540   30.8230 O.co2     1 SUB1       -0.500
     14 O4         73.6240   40.0660   29.6900 O.co2     1 SUB1       -0.500
     15 C6         77.4750   41.1130   30.7050 C.2       1 SUB1        0.000
     16 O5         77.8150   40.5240   29.6370 O.co2     1 SUB1       -0.500
     17 O6         78.2140   41.0700   31.7210 O.co2     1 SUB1       -0.500
@<TRIPOS>BOND
     1    9    1 1  
     2    9    2 1  
     3   10    3 1  
     4   11    4 1  
     5   11    5 1  
     6    9    6 1  
     7    6    8 ar 
     8    6    7 ar 
     9    9   10 1  
    10   10   15 1  
    11   10   11 1  
    12   11   12 1  
    13   12   14 ar 
    14   12   13 ar 
    15   15   17 ar 
    16   15   16 ar 
@<TRIPOS>SUBSTRUCTURE
     1 SUB1        1 GROUP

