### Name: 6enl_ligand
### Creating user name: arthur
### Creation time: Tue Nov 27 11:30:27 2001


@<TRIPOS>MOLECULE
6enl_ligand
   11    10     1     0     0
SMALL
USER_CHARGES


@<TRIPOS>ATOM
      1 H1         94.7243   48.5584   24.2647 H         1 SUB1        0.000
      2 H2         93.9976   47.7564   25.6983 H         1 SUB1        0.000
      3 C1         95.9320   48.5920   26.0210 C.2       1 SUB1        0.000
      4 C2         94.9220   47.8930   25.1180 C.3       1 SUB1        0.000
      5 P          94.8600   45.8150   23.3290 P.3       1 SUB1        0.000
      6 O11        96.8000   48.0690   26.7140 O.co2     1 SUB1       -0.500
      7 O12        96.1070   49.8990   25.7850 O.co2     1 SUB1       -0.500
      8 O1P        95.2810   46.6560   24.6080 O.3       1 SUB1        0.000
      9 O2P        93.3960   45.5960   22.7570 O.co2     1 SUB1       -0.500
     10 O3P        95.8660   46.0380   21.9750 O.co2     1 SUB1       -0.500
     11 O4P        95.2810   44.4580   23.7270 O.co2     1 SUB1       -0.500
@<TRIPOS>BOND
     1    4    1 1  
     2    4    2 1  
     3    4    3 1  
     4    3    6 ar 
     5    3    7 ar 
     6    4    8 1  
     7    5   11 ar 
     8    5   10 ar 
     9    5    9 ar 
    10    8    5 1  
@<TRIPOS>SUBSTRUCTURE
     1 SUB1        1 GROUP

