### Name: 6tmn_ligand
### Creating user name: arthur
### Creation time: Tue Nov 27 11:30:27 2001


@<TRIPOS>MOLECULE
6tmn_ligand
   63    63     1     0     0
SMALL
USER_CHARGES


@<TRIPOS>ATOM
      1 C          49.7320   17.9160   -8.8050 C.2       1 SUB1        0.000
      2 O          49.6210   16.7060   -8.9830 O.2       1 SUB1        0.000
      3 OA         49.3950   18.7650   -9.7730 O.3       1 SUB1        0.000
      4 CB         48.8310   18.3870  -11.0980 C.3       1 SUB1        0.000
      5 CG         47.5090   19.1420  -11.5030 C.ar      1 SUB1        0.000
      6 CD1        46.4420   19.1120  -10.6250 C.ar      1 SUB1        0.000
      7 CD2        47.3490   19.8900  -12.6480 C.ar      1 SUB1        0.000
      8 CE1        45.1590   19.6270  -10.8670 C.ar      1 SUB1        0.000
      9 CE2        46.1150   20.5390  -12.8310 C.ar      1 SUB1        0.000
     10 CZ         45.0560   20.3520  -12.0020 C.ar      1 SUB1        0.000
     11 N          50.1340   18.6110   -7.7380 N.am      1 SUB1        0.000
     12 CA         50.4270   17.8980   -6.5890 C.3       1 SUB1        0.000
     13 P          51.7870   18.9090   -6.0200 P.3       1 SUB1        0.000
     14 O1P        53.0370   18.6550   -6.6220 O.co2     1 SUB1       -0.500
     15 O2P        51.5770   20.4520   -5.9460 O.co2     1 SUB1       -0.500
     16 ON         51.7690   18.4130   -4.4820 O.3       1 SUB1        0.000
     17 CA         52.8820   18.2660   -3.6000 C.3       1 SUB1        0.000
     18 C          53.5700   16.9230   -3.8630 C.2       1 SUB1        0.000
     19 O          54.8000   16.7670   -3.8170 O.2       1 SUB1        0.000
     20 CB         52.4680   18.3300   -2.0970 C.3       1 SUB1        0.000
     21 CG         53.6790   18.1480   -1.1610 C.3       1 SUB1        0.000
     22 CD1        54.5800   19.3810   -1.3270 C.3       1 SUB1        0.000
     23 CD2        53.0320   18.1390    0.2090 C.3       1 SUB1        0.000
     24 N          52.7310   15.9160   -4.1400 N.am      1 SUB1        0.000
     25 CA         53.1280   14.5230   -4.3810 C.3       1 SUB1        0.000
     26 C          52.3790   13.8440   -5.5290 C.2       1 SUB1        0.000
     27 O          51.2930   14.3330   -5.9470 O.co2     1 SUB1       -0.500
     28 CB         53.4770   13.6920   -3.1090 C.3       1 SUB1        0.000
     29 CG         52.2970   13.4890   -2.2280 C.3       1 SUB1        0.000
     30 CD1        52.4260   14.5420   -1.1620 C.3       1 SUB1        0.000
     31 CD2        52.3240   12.1690   -1.4970 C.3       1 SUB1        0.000
     32 OXT        52.8340   12.7940   -6.1160 O.co2     1 SUB1       -0.500
     33 H          51.7553   16.1303   -4.1864 H         1 SUB1        0.000
     34 HA         54.1262   14.6488   -4.8256 H         1 SUB1        0.000
     35 HB2        54.2552   14.2234   -2.5415 H         1 SUB1        0.000
     36 HB1        53.8584   12.7089   -3.4220 H         1 SUB1        0.000
     37 HG         51.3640   13.5916   -2.8016 H         1 SUB1        0.000
     38 HD13       53.3657   14.3920   -0.6103 H         1 SUB1        0.000
     39 HD12       51.5767   14.4662   -0.4670 H         1 SUB1        0.000
     40 HD11       52.4299   15.5380   -1.6289 H         1 SUB1        0.000
     41 HD23       52.3300   11.3459   -2.2267 H         1 SUB1        0.000
     42 HD22       51.4328   12.0856   -0.8576 H         1 SUB1        0.000
     43 HD21       53.2288   12.1133   -0.8739 H         1 SUB1        0.000
     44 ****       48.6156   17.3084  -11.0813 H         1 SUB1        0.000
     45 ****       49.5916   18.5972  -11.8644 H         1 SUB1        0.000
     46 ****       46.6118   18.6478   -9.6602 H         1 SUB1        0.000
     47 ****       48.1438   19.9753  -13.3802 H         1 SUB1        0.000
     48 ****       44.3218   19.4573  -10.1997 H         1 SUB1        0.000
     49 ****       46.0045   21.2173  -13.6693 H         1 SUB1        0.000
     50 ****       44.1013   20.7969  -12.2582 H         1 SUB1        0.000
     51 ****       50.2198   19.6069   -7.7682 H         1 SUB1        0.000
     52 ****       50.7364   16.8649   -6.8057 H         1 SUB1        0.000
     53 ****       49.5878   17.8879   -5.8780 H         1 SUB1        0.000
     54 ****       53.5932   19.0807   -3.8012 H         1 SUB1        0.000
     55 ****       51.7385   17.5321   -1.8944 H         1 SUB1        0.000
     56 ****       52.0068   19.3082   -1.8961 H         1 SUB1        0.000
     57 ****       54.2362   17.2210   -1.3613 H         1 SUB1        0.000
     58 ****       55.4577   19.2847   -0.6710 H         1 SUB1        0.000
     59 ****       54.0168   20.2860   -1.0553 H         1 SUB1        0.000
     60 ****       54.9108   19.4553   -2.3735 H         1 SUB1        0.000
     61 ****       52.3924   17.2494    0.3065 H         1 SUB1        0.000
     62 ****       52.4208   19.0453    0.3319 H         1 SUB1        0.000
     63 ****       53.8130   18.1157    0.9832 H         1 SUB1        0.000
@<TRIPOS>BOND
     1   25   24 1  
     2   25   28 1  
     3   25   26 1  
     4   26   27 ar 
     5   26   32 ar 
     6   28   29 1  
     7   29   30 1  
     8   29   31 1  
     9    1    2 2  
    10    1    3 1  
    11    1   11 am 
    12    3    4 1  
    13    4    5 1  
    14    5    6 ar 
    15    5    7 ar 
    16    6    8 ar 
    17    7    9 ar 
    18    8   10 ar 
    19    9   10 ar 
    20   11   12 1  
    21   12   13 1  
    22   13   14 ar 
    23   13   15 ar 
    24   13   16 1  
    25   16   17 1  
    26   17   18 1  
    27   17   20 1  
    28   18   19 2  
    29   18   24 am 
    30   20   21 1  
    31   21   22 1  
    32   21   23 1  
    33   24   33 1  
    34   25   34 1  
    35   28   35 1  
    36   28   36 1  
    37   29   37 1  
    38   30   38 1  
    39   30   39 1  
    40   30   40 1  
    41   31   41 1  
    42   31   42 1  
    43   31   43 1  
    44    4   44 1  
    45    4   45 1  
    46    6   46 1  
    47    7   47 1  
    48    8   48 1  
    49    9   49 1  
    50   10   50 1  
    51   11   51 1  
    52   12   52 1  
    53   12   53 1  
    54   17   54 1  
    55   20   55 1  
    56   20   56 1  
    57   21   57 1  
    58   22   58 1  
    59   22   59 1  
    60   22   60 1  
    61   23   61 1  
    62   23   62 1  
    63   23   63 1  
@<TRIPOS>SUBSTRUCTURE
     1 SUB1        1 GROUP

