### Name: 7tim_ligand
### Creating user name: arthur
### Creation time: Tue Nov 27 11:30:28 2001


@<TRIPOS>MOLECULE
7tim_ligand
   14    13     1     0     0
SMALL
USER_CHARGES


@<TRIPOS>ATOM
      1 H1         92.2202   42.2464   49.6286 H         1 SUB1        0.000
      2 H2         92.6897   43.9361   50.0177 H         1 SUB1        0.000
      3 H3         89.6209   42.5160   53.1632 H         1 SUB1        0.000
      4 C1         90.6150   43.4860   50.3290 C.2       1 SUB1        0.000
      5 C2         91.9140   43.3010   49.5650 C.3       1 SUB1        0.000
      6 O4         93.8610   44.4080   47.0190 O.co2     1 SUB1       -0.500
      7 O5         92.3800   42.6570   45.9570 O.co2     1 SUB1       -0.500
      8 O6         93.6110   42.1770   48.0130 O.co2     1 SUB1       -0.500
      9 N          90.6350   42.9340   51.5410 N.am      1 SUB1        0.000
     10 O1         89.4500   42.9430   52.3320 O.3       1 SUB1        0.000
     11 O2         89.6220   44.0900   49.8590 O.2       1 SUB1        0.000
     12 O3         91.7620   43.6610   48.1850 O.3       1 SUB1        0.000
     13 P          92.9770   43.1730   47.1990 P.3       1 SUB1        0.000
     14 H4         91.4735   42.5174   51.8923 H         1 SUB1        0.000
@<TRIPOS>BOND
     1    5    1 1  
     2    5    2 1  
     3   10    3 1  
     4    5    4 1  
     5    4    9 am 
     6    4   11 2  
     7    5   12 1  
     8    9   10 1  
     9   12   13 1  
    10   13    8 ar 
    11   13    7 ar 
    12   13    6 ar 
    13    9   14 1  
@<TRIPOS>SUBSTRUCTURE
     1 SUB1        1 GROUP

