### Name: 7tln_ligand
### Creating user name: arthur
### Creation time: Tue Nov 27 11:30:28 2001


@<TRIPOS>MOLECULE
7tln_ligand
   31    30     1     0     0
SMALL
USER_CHARGES


@<TRIPOS>ATOM
      1 CA1        51.2410   20.0930   -3.9190 C.3       1 SUB1        0.000
      2 C1         51.8810   19.8090   -5.2450 C.2       1 SUB1        0.000
      3 O1         51.7040   20.4170   -6.3590 O.2       1 SUB1        0.000
      4 N2         52.5800   18.7720   -5.1430 N.am      1 SUB1        0.000
      5 OH2        53.2330   18.3760   -6.2530 O.3       1 SUB1        0.000
      6 CA2        52.7560   18.0530   -3.8130 C.3       1 SUB1        0.000
      7 CB2        53.8070   18.7230   -2.9630 C.3       1 SUB1        0.000
      8 CG2        53.7010   18.3710   -1.4820 C.3       1 SUB1        0.000
      9 CD1        52.3270   18.5990   -0.7610 C.3       1 SUB1        0.000
     10 CD2        54.8120   19.1990   -0.9090 C.3       1 SUB1        0.000
     11 C2         53.2760   16.6130   -3.9640 C.2       1 SUB1        0.000
     12 O2         54.4870   16.5200   -3.7020 O.2       1 SUB1        0.000
     13 O3         52.4140   15.5780   -4.4500 O.3       1 SUB1        0.000
     14 C3         53.0120   14.2330   -4.4720 C.3       1 SUB1        0.000
     15 ****       51.6168   19.3801   -3.1703 H         1 SUB1        0.000
     16 ****       50.1496   19.9890   -4.0088 H         1 SUB1        0.000
     17 ****       51.4871   21.1181   -3.6051 H         1 SUB1        0.000
     18 ****       52.9970   18.9424   -6.9782 H         1 SUB1        0.000
     19 ****       51.7882   18.0483   -3.2902 H         1 SUB1        0.000
     20 ****       53.7010   19.8125   -3.0712 H         1 SUB1        0.000
     21 ****       54.7984   18.4133   -3.3252 H         1 SUB1        0.000
     22 ****       53.9376   17.3037   -1.3602 H         1 SUB1        0.000
     23 ****       52.4125   18.2996    0.2940 H         1 SUB1        0.000
     24 ****       51.5504   17.9941   -1.2520 H         1 SUB1        0.000
     25 ****       52.0545   19.6631   -0.8192 H         1 SUB1        0.000
     26 ****       55.7432   18.9926   -1.4569 H         1 SUB1        0.000
     27 ****       54.9477   18.9461    0.1529 H         1 SUB1        0.000
     28 ****       54.5602   20.2657   -1.0027 H         1 SUB1        0.000
     29 ****       52.2772   13.5113   -4.8583 H         1 SUB1        0.000
     30 ****       53.3064   13.9459   -3.4518 H         1 SUB1        0.000
     31 ****       53.8991   14.2367   -5.1224 H         1 SUB1        0.000
@<TRIPOS>BOND
     1    1    2 1  
     2    2    3 2  
     3    2    4 am 
     4    4    5 1  
     5    4    6 1  
     6    6    7 1  
     7    6   11 1  
     8    7    8 1  
     9    8    9 1  
    10    8   10 1  
    11   11   12 2  
    12   11   13 1  
    13   13   14 1  
    14    1   15 1  
    15    1   16 1  
    16    1   17 1  
    17    5   18 1  
    18    6   19 1  
    19    7   20 1  
    20    7   21 1  
    21    8   22 1  
    22    9   23 1  
    23    9   24 1  
    24    9   25 1  
    25   10   26 1  
    26   10   27 1  
    27   10   28 1  
    28   14   29 1  
    29   14   30 1  
    30   14   31 1  
@<TRIPOS>SUBSTRUCTURE
     1 SUB1        1 GROUP

