### Name: 8icd_ligand
### Creating user name: arthur
### Creation time: Tue Nov 27 11:30:28 2001


@<TRIPOS>MOLECULE
8icd_ligand
   18    17     1     0     0
SMALL
USER_CHARGES


@<TRIPOS>ATOM
      1 H1         86.2564   66.9509    1.6682 H         1 SUB1        0.000
      2 H2         85.3205   69.0292    1.1923 H         1 SUB1        0.000
      3 H3         84.6261   65.2782    2.4966 H         1 SUB1        0.000
      4 H4         84.2913   66.1417   -0.3943 H         1 SUB1        0.000
      5 H5         83.6190   64.6175    0.2778 H         1 SUB1        0.000
      6 C1         85.2230   67.5940    3.4310 C.2       1 SUB1        0.000
      7 O1         85.8160   66.9110    4.2310 O.co2     1 SUB1       -0.500
      8 O2         84.6090   68.5900    3.8010 O.co2     1 SUB1       -0.500
      9 C2         85.2330   67.2250    1.9640 C.3       1 SUB1        0.000
     10 O7         84.7570   68.2690    1.1080 O.3       1 SUB1        0.000
     11 C3         84.2900   66.0430    1.7810 C.3       1 SUB1        0.000
     12 C4         84.4060   65.3780    0.3890 C.3       1 SUB1        0.000
     13 C5         85.7870   64.7120    0.2600 C.2       1 SUB1        0.000
     14 O3         86.3890   64.7480   -0.8210 O.co2     1 SUB1       -0.500
     15 O4         86.2250   64.1310    1.2820 O.co2     1 SUB1       -0.500
     16 C6         82.8570   66.3930    2.1950 C.2       1 SUB1        0.000
     17 O5         82.5060   66.1760    3.3520 O.co2     1 SUB1       -0.500
     18 O6         82.1460   66.8930    1.3490 O.co2     1 SUB1       -0.500
@<TRIPOS>BOND
     1    9    1 1  
     2   10    2 1  
     3   11    3 1  
     4   12    4 1  
     5   12    5 1  
     6    6    7 ar 
     7    6    8 ar 
     8    6    9 1  
     9    9   10 1  
    10    9   11 1  
    11   11   12 1  
    12   11   16 1  
    13   12   13 1  
    14   13   14 ar 
    15   13   15 ar 
    16   16   17 ar 
    17   16   18 ar 
@<TRIPOS>SUBSTRUCTURE
     1 SUB1        1 GROUP

