### Name: 8xia_ligand
### Creating user name: arthur
### Creation time: Tue Nov 27 11:30:28 2001


@<TRIPOS>MOLECULE
8xia_ligand
   20    19     1     0     0
SMALL
USER_CHARGES


@<TRIPOS>ATOM
      1 H1         34.4635   30.5940   57.4560 H         1 SUB1        0.000
      2 H2         32.7380   31.6965   59.0005 H         1 SUB1        0.000
      3 H3         33.5114   34.0138   57.4314 H         1 SUB1        0.000
      4 H4         35.1101   31.9922   57.1444 H         1 SUB1        0.000
      5 H5         34.8823   34.2787   56.4007 H         1 SUB1        0.000
      6 H6         36.5932   33.8117   56.6858 H         1 SUB1        0.000
      7 H7         31.1371   31.6545   57.5032 H         1 SUB1        0.000
      8 H8         32.4213   34.2715   59.3083 H         1 SUB1        0.000
      9 H9         35.1929   31.3593   59.2508 H         1 SUB1        0.000
     10 H10        36.1263   35.9547   57.3394 H         1 SUB1        0.000
     11 C1         33.5190   31.1070   57.2810 C.2       1 SUB1        0.000
     12 C2         32.8700   32.1410   58.0030 C.3       1 SUB1        0.000
     13 C3         33.7220   33.3180   58.2570 C.3       1 SUB1        0.000
     14 C4         35.1660   32.7830   57.9070 C.3       1 SUB1        0.000
     15 C5         35.6360   34.0550   57.1700 C.3       1 SUB1        0.000
     16 O1         32.5480   30.9530   56.2590 O.2       1 SUB1        0.000
     17 O2         31.6330   32.4510   57.6520 O.3       1 SUB1        0.000
     18 O3         33.3540   34.0950   59.3460 O.3       1 SUB1        0.000
     19 O4         35.7200   32.1210   59.0400 O.3       1 SUB1        0.000
     20 O5         35.8400   35.2620   57.9230 O.3       1 SUB1        0.000
@<TRIPOS>BOND
     1   11    1 1  
     2   12    2 1  
     3   13    3 1  
     4   14    4 1  
     5   15    5 1  
     6   15    6 1  
     7   17    7 1  
     8   18    8 1  
     9   19    9 1  
    10   20   10 1  
    11   11   12 1  
    12   11   16 2  
    13   12   13 1  
    14   12   17 1  
    15   13   14 1  
    16   13   18 1  
    17   14   15 1  
    18   14   19 1  
    19   15   20 1  
@<TRIPOS>SUBSTRUCTURE
     1 SUB1        1 GROUP

