### Name: 1a5g_ligand
### Creating user name: arthur
### Creation time: Tue Nov 27 11:30:16 2001


@<TRIPOS>MOLECULE
1a5g_ligand
   84    87     1     0     0
SMALL
USER_CHARGES


@<TRIPOS>ATOM
      1 C1         17.9370  -13.0140   20.9460 C.3       1 SUB1        0.000
      2 C2         19.1340  -12.9300   19.9920 C.3       1 SUB1        0.000
      3 C3         20.0460  -14.1410   20.3410 C.3       1 SUB1        0.000
      4 C4         19.6110  -16.2000   21.7990 C.3       1 SUB1        0.000
      5 C5         18.4750  -17.0050   22.4910 C.3       1 SUB1        0.000
      6 C6         17.5080  -16.1580   23.2780 C.3       1 SUB1        0.000
      7 C7         17.3450  -14.7490   22.6440 C.2       1 SUB1        0.000
      8 N1         19.1030  -15.1160   20.9130 N.4       1 SUB1        1.000
      9 N2         18.1770  -14.3160   21.6160 N.am      1 SUB1        0.000
     10 O1         16.3830  -14.0860   22.9910 O.2       1 SUB1        0.000
     11 C8         16.5330  -12.8940   20.3820 C.2       1 SUB1        0.000
     12 O2         16.0150  -13.9840   20.0560 O.2       1 SUB1        0.000
     13 N3         16.1250  -16.7390   23.2510 N.4       1 SUB1        1.000
     14 C9         17.7600  -16.1380   24.8070 C.3       1 SUB1        0.000
     15 C10        19.1990  -15.7640   25.1780 C.ar      1 SUB1        0.000
     16 C11        20.2050  -16.7560   25.2760 C.ar      1 SUB1        0.000
     17 C12        21.5340  -16.4000   25.5810 C.ar      1 SUB1        0.000
     18 C13        21.9080  -15.0910   25.8400 C.ar      1 SUB1        0.000
     19 C14        20.9110  -14.1170   25.8250 C.ar      1 SUB1        0.000
     20 C15        19.5940  -14.4370   25.4480 C.ar      1 SUB1        0.000
     21 N          15.8030  -11.7310   20.2580 N.am      1 SUB1        0.000
     22 CA         14.3880  -11.6800   19.7870 C.3       1 SUB1        0.000
     23 C          14.3520  -10.9100   18.4500 C.2       1 SUB1        0.000
     24 O          13.2810  -10.5340   17.8590 O.2       1 SUB1        0.000
     25 CB         13.4550  -10.9210   20.7580 C.3       1 SUB1        0.000
     26 CG         12.9150  -11.8770   21.7720 C.3       1 SUB1        0.000
     27 CD         12.1100  -11.3370   22.8370 C.3       1 SUB1        0.000
     28 NE         11.3720  -12.3250   23.5590 N.pl3     1 SUB1        0.000
     29 CZ         10.5880  -12.1520   24.5860 C.cat     1 SUB1        0.000
     30 NH1        10.4390  -10.8990   25.0790 N.pl3     1 SUB1        0.500
     31 NH2         9.8600  -13.1360   25.1200 N.pl3     1 SUB1        0.500
     32 C1         14.2810  -12.2460   13.6500 C.ar      1 SUB1        0.000
     33 C2         13.7470  -11.3090   12.7470 C.ar      1 SUB1        0.000
     34 C3         12.4400  -11.5240   12.2560 C.ar      1 SUB1        0.000
     35 C4         11.6740  -12.6230   12.7000 C.ar      1 SUB1        0.000
     36 C5         12.2160  -13.5230   13.6610 C.ar      1 SUB1        0.000
     37 C6         13.5280  -13.3270   14.1320 C.ar      1 SUB1        0.000
     38 C7         15.7270  -12.0380   14.2340 C.3       1 SUB1        0.000
     39 C8         15.7100  -12.9260   15.5360 C.3       1 SUB1        0.000
     40 N1         14.7320  -12.3470   16.4930 N.am      1 SUB1        0.000
     41 C9         15.3770  -11.4490   17.4510 C.2       1 SUB1        0.000
     42 O1         16.5140  -11.1040   17.4890 O.2       1 SUB1        0.000
     43 H          16.2491  -10.8689   20.4984 H         1 SUB1        0.000
     44 HA         14.0167  -12.7062   19.6493 H         1 SUB1        0.000
     45 HB2        12.6227  -10.4743   20.1943 H         1 SUB1        0.000
     46 HB1        14.0213  -10.1269   21.2665 H         1 SUB1        0.000
     47 HG2        13.7737  -12.3857   22.2344 H         1 SUB1        0.000
     48 HG1        12.2988  -12.6129   21.2347 H         1 SUB1        0.000
     49 HD2        11.3975  -10.6196   22.4039 H         1 SUB1        0.000
     50 HD1        12.7730  -10.8148   23.5425 H         1 SUB1        0.000
     51 HE         11.4720  -13.2947   23.2265 H         1 SUB1        0.000
     52 HH11       10.9392  -10.1112   24.6430 H         1 SUB1        0.000
     53 HH12        9.8255  -10.7342   25.8898 H         1 SUB1        0.000
     54 HH21        9.9030  -14.0840   24.7196 H         1 SUB1        0.000
     55 HH22        9.2555  -12.9469   25.9323 H         1 SUB1        0.000
     56 H1         18.0347  -12.2035   21.6832 H         1 SUB1        0.000
     57 H2         19.6778  -11.9859   20.1432 H         1 SUB1        0.000
     58 H3         18.7956  -12.9950   18.9474 H         1 SUB1        0.000
     59 H4         20.8146  -13.8577   21.0751 H         1 SUB1        0.000
     60 H5         20.5308  -14.5430   19.4391 H         1 SUB1        0.000
     61 H6         20.2440  -15.7484   22.5771 H         1 SUB1        0.000
     62 H7         20.2128  -16.8937   21.1936 H         1 SUB1        0.000
     63 H8         18.9354  -17.7308   23.1774 H         1 SUB1        0.000
     64 H9         17.9103  -17.5418   21.7145 H         1 SUB1        0.000
     65 H10        15.5034  -16.1516   23.7845 H         1 SUB1        0.000
     66 H11        16.1410  -17.6634   23.6526 H         1 SUB1        0.000
     67 H12        15.8014  -16.7922   22.2978 H         1 SUB1        0.000
     68 H13        17.5442  -17.1386   25.2098 H         1 SUB1        0.000
     69 H14        17.0795  -15.4043   25.2637 H         1 SUB1        0.000
     70 H15        19.9507  -17.7974   25.1151 H         1 SUB1        0.000
     71 H16        22.2895  -17.1766   25.6141 H         1 SUB1        0.000
     72 H17        22.9404  -14.8334   26.0471 H         1 SUB1        0.000
     73 H18        21.1538  -13.0991   26.1077 H         1 SUB1        0.000
     74 H19        18.8624  -13.6417   25.3626 H         1 SUB1        0.000
     75 H20        14.3231  -10.4449   12.4362 H         1 SUB1        0.000
     76 H21        12.0206  -10.8370   11.5299 H         1 SUB1        0.000
     77 H22        10.6750  -12.7816   12.3102 H         1 SUB1        0.000
     78 H23        11.6227  -14.3530   14.0272 H         1 SUB1        0.000
     79 H24        13.9533  -14.0064   14.8618 H         1 SUB1        0.000
     80 H25        15.9072  -10.9807   14.4781 H         1 SUB1        0.000
     81 H26        16.4938  -12.3869   13.5267 H         1 SUB1        0.000
     82 H27        16.7116  -12.9361   15.9906 H         1 SUB1        0.000
     83 H28        15.4133  -13.9537   15.2796 H         1 SUB1        0.000
     84 H29        13.7522  -12.5468   16.4834 H         1 SUB1        0.000
@<TRIPOS>BOND
     1    1   11 1  
     2    1    9 1  
     3    1    2 1  
     4    2    3 1  
     5    3    8 1  
     6    8    9 1  
     7    8    4 1  
     8    4    5 1  
     9    5    6 1  
    10    6   14 1  
    11    6   13 1  
    12    6    7 1  
    13    7   10 2  
    14    7    9 am 
    15   14   15 1  
    16   15   20 ar 
    17   15   16 ar 
    18   16   17 ar 
    19   17   18 ar 
    20   18   19 ar 
    21   19   20 ar 
    22   11   12 2  
    23   22   23 1  
    24   22   25 1  
    25   22   21 1  
    26   25   26 1  
    27   26   27 1  
    28   27   28 1  
    29   28   29 ar 
    30   29   30 ar 
    31   29   31 ar 
    32   23   24 2  
    33   32   38 1  
    34   32   37 ar 
    35   32   33 ar 
    36   33   34 ar 
    37   34   35 ar 
    38   35   36 ar 
    39   36   37 ar 
    40   38   39 1  
    41   39   40 1  
    42   40   41 am 
    43   41   42 2  
    44   21   11 am 
    45   41   23 1  
    46   21   43 1  
    47   22   44 1  
    48   25   45 1  
    49   25   46 1  
    50   26   47 1  
    51   26   48 1  
    52   27   49 1  
    53   27   50 1  
    54   28   51 1  
    55   30   52 1  
    56   30   53 1  
    57   31   54 1  
    58   31   55 1  
    59    1   56 1  
    60    2   57 1  
    61    2   58 1  
    62    3   59 1  
    63    3   60 1  
    64    4   61 1  
    65    4   62 1  
    66    5   63 1  
    67    5   64 1  
    68   13   65 1  
    69   13   66 1  
    70   13   67 1  
    71   14   68 1  
    72   14   69 1  
    73   16   70 1  
    74   17   71 1  
    75   18   72 1  
    76   19   73 1  
    77   20   74 1  
    78   33   75 1  
    79   34   76 1  
    80   35   77 1  
    81   36   78 1  
    82   37   79 1  
    83   38   80 1  
    84   38   81 1  
    85   39   82 1  
    86   39   83 1  
    87   40   84 1  
@<TRIPOS>SUBSTRUCTURE
     1 SUB1        1 GROUP

