### Name: 1a94_ligand
### Creating user name: arthur
### Creation time: Tue Nov 27 11:30:17 2001


@<TRIPOS>MOLECULE
1a94_ligand
  128   128     1     0     0
SMALL
USER_CHARGES


@<TRIPOS>ATOM
      1 N          50.8690   20.6100   27.1570 N.4       1 SUB1        1.000
      2 CA         51.6100   19.8510   28.2070 C.3       1 SUB1        0.000
      3 C          53.0860   20.2070   28.1870 C.2       1 SUB1        0.000
      4 O          53.6660   20.4070   27.1310 O.2       1 SUB1        0.000
      5 CB         51.4600   18.3210   28.0200 C.3       1 SUB1        0.000
      6 CG         50.0880   17.7100   28.3800 C.3       1 SUB1        0.000
      7 CD         49.5980   18.0580   29.8260 C.3       1 SUB1        0.000
      8 NE         48.3250   17.4210   30.1800 N.pl3     1 SUB1        0.000
      9 CZ         48.1320   16.1030   30.2180 C.cat     1 SUB1        0.000
     10 NH1        49.1170   15.2680   29.9350 N.pl3     1 SUB1        0.500
     11 NH2        46.9390   15.6140   30.5030 N.pl3     1 SUB1        0.500
     12 H1         50.9950   21.6310   27.2830 H         1 SUB1        0.000
     13 H2         51.3040   20.2950   26.2660 H         1 SUB1        0.000
     14 H3         49.8650   20.3490   27.2080 H         1 SUB1        0.000
     15 HE         47.5740   18.0040   30.4180 H         1 SUB1        0.000
     16 HH11       50.0230   15.6180   29.6960 H         1 SUB1        0.000
     17 HH12       48.9530   14.2840   29.9550 H         1 SUB1        0.000
     18 HH21       46.1790   16.2350   30.7100 H         1 SUB1        0.000
     19 HH22       46.8060   14.6240   30.5470 H         1 SUB1        0.000
     20 N          53.6690   20.2890   29.3720 N.am      1 SUB1        0.000
     21 CA         55.0580   20.6150   29.5840 C.3       1 SUB1        0.000
     22 C          55.5940   19.4090   30.3930 C.2       1 SUB1        0.000
     23 O          55.3680   19.2930   31.6080 O.2       1 SUB1        0.000
     24 CB         55.1690   21.9200   30.3950 C.3       1 SUB1        0.000
     25 CG1        56.6010   22.4200   30.3940 C.3       1 SUB1        0.000
     26 CG2        54.2290   22.9820   29.8400 C.3       1 SUB1        0.000
     27 H          53.1530   20.1130   30.1910 H         1 SUB1        0.000
     28 N          56.3130   18.5180   29.7170 N.am      1 SUB1        0.000
     29 CA         56.7930   17.3100   30.3630 C.3       1 SUB1        0.000
     30 C          58.1850   17.2950   30.9450 C.2       1 SUB1        0.000
     31 O          58.8360   16.2510   30.9810 O.2       1 SUB1        0.000
     32 CB         56.5500   16.1270   29.4520 C.3       1 SUB1        0.000
     33 CG         55.0840   16.1660   29.0310 C.3       1 SUB1        0.000
     34 CD1        54.7950   15.3140   27.8110 C.3       1 SUB1        0.000
     35 CD2        54.2320   15.7850   30.2140 C.3       1 SUB1        0.000
     36 H          56.4980   18.6620   28.7610 H         1 SUB1        0.000
     37 N          58.6570   18.4620   31.3750 N.am      1 SUB1        0.000
     38 CA         59.9500   18.5840   32.0340 C.3       1 SUB1        0.000
     39 C          59.9260   17.5780   33.2260 C.2       1 SUB1        0.000
     40 O          58.8900   17.3740   33.8940 O.2       1 SUB1        0.000
     41 CB         60.1200   20.0380   32.4960 C.3       1 SUB1        0.000
     42 CG         61.0300   20.1980   33.6810 C.ar      1 SUB1        0.000
     43 CD1        62.3990   20.0230   33.5480 C.ar      1 SUB1        0.000
     44 CD2        60.4980   20.4190   34.9480 C.ar      1 SUB1        0.000
     45 CE1        63.2270   20.0520   34.6550 C.ar      1 SUB1        0.000
     46 CE2        61.3080   20.4500   36.0610 C.ar      1 SUB1        0.000
     47 CZ         62.6720   20.2620   35.9190 C.ar      1 SUB1        0.000
     48 H          58.0970   19.2530   31.2680 H         1 SUB1        0.000
     49 N          61.0460   16.9280   33.4910 N.am      1 SUB1        0.000
     50 CA         61.1040   15.9430   34.5730 C.3       1 SUB1        0.000
     51 C          62.5210   15.9540   35.1270 C.2       1 SUB1        0.000
     52 O          63.5140   15.7680   34.4230 O.2       1 SUB1        0.000
     53 CB         60.6670   14.5720   34.0260 C.3       1 SUB1        0.000
     54 CG         60.8330   13.3810   34.9590 C.3       1 SUB1        0.000
     55 CD         62.2940   12.9710   35.1210 C.2       1 SUB1        0.000
     56 OE1        63.0510   13.2100   34.1510 O.co2     1 SUB1       -0.500
     57 OE2        62.6960   12.4490   36.2020 O.co2     1 SUB1       -0.500
     58 H          61.8500   17.0970   32.9480 H         1 SUB1        0.000
     59 N          62.6330   16.2310   36.3980 N.am      1 SUB1        0.000
     60 CA         63.9490   16.2950   36.9880 C.3       1 SUB1        0.000
     61 C          64.0660   15.3140   38.1270 C.2       1 SUB1        0.000
     62 O          63.1280   15.1480   38.9200 O.2       1 SUB1        0.000
     63 CB         64.2270   17.7130   37.4750 C.3       1 SUB1        0.000
     64 H          61.8390   16.3480   36.9600 H         1 SUB1        0.000
     65 N          65.2230   14.6810   38.2110 N.am      1 SUB1        0.000
     66 CA         65.5060   13.7020   39.2450 C.3       1 SUB1        0.000
     67 C          64.7380   13.8600   40.5620 C.2       1 SUB1        0.000
     68 O          64.9380   14.8420   41.3310 O.2       1 SUB1        0.000
     69 CB         67.0020   13.6810   39.5010 C.3       1 SUB1        0.000
     70 CG         67.7940   13.0550   38.3560 C.3       1 SUB1        0.000
     71 CD         67.7570   11.5290   38.4250 C.3       1 SUB1        0.000
     72 CE         68.9090   10.9520   37.6030 C.3       1 SUB1        0.000
     73 HN1        65.9350   14.8930   37.5850 H         1 SUB1        0.000
     74 N          63.8820   12.9800   40.7800 N.am      1 SUB1        0.000
     75 HA         51.1936   20.1260   29.1873 H         1 SUB1        0.000
     76 HB2        52.2181   17.8322   28.6495 H         1 SUB1        0.000
     77 HB1        51.6593   18.0932   26.9625 H         1 SUB1        0.000
     78 HG2        50.1627   16.6160   28.2936 H         1 SUB1        0.000
     79 HG1        49.3431   18.0844   27.6624 H         1 SUB1        0.000
     80 HD2        49.4740   19.1485   29.8989 H         1 SUB1        0.000
     81 HD1        50.3643   17.7274   30.5426 H         1 SUB1        0.000
     82 HA         55.5947   20.7214   28.6297 H         1 SUB1        0.000
     83 HB         54.8760   21.7085   31.4339 H         1 SUB1        0.000
     84 HG13       57.2536   21.6640   30.8550 H         1 SUB1        0.000
     85 HG12       56.6628   23.3566   30.9676 H         1 SUB1        0.000
     86 HG11       56.9251   22.6020   29.3587 H         1 SUB1        0.000
     87 HG23       54.4971   23.1993   28.7955 H         1 SUB1        0.000
     88 HG22       54.3177   23.8998   30.4398 H         1 SUB1        0.000
     89 HG21       53.1933   22.6140   29.8838 H         1 SUB1        0.000
     90 HA         56.1320   17.1722   31.2314 H         1 SUB1        0.000
     91 HB2        56.7619   15.1902   29.9882 H         1 SUB1        0.000
     92 HB1        57.1974   16.1965   28.5654 H         1 SUB1        0.000
     93 HG         54.8409   17.2045   28.7619 H         1 SUB1        0.000
     94 HD13       55.3881   15.6794   26.9597 H         1 SUB1        0.000
     95 HD12       53.7245   15.3761   27.5656 H         1 SUB1        0.000
     96 HD11       55.0626   14.2682   28.0223 H         1 SUB1        0.000
     97 HD23       54.4915   14.7670   30.5400 H         1 SUB1        0.000
     98 HD22       53.1705   15.8189   29.9275 H         1 SUB1        0.000
     99 HD21       54.4120   16.4910   31.0381 H         1 SUB1        0.000
    100 HA         60.7645   18.3230   31.3423 H         1 SUB1        0.000
    101 HB2        59.1295   20.4343   32.7640 H         1 SUB1        0.000
    102 HB1        60.5341   20.6208   31.6601 H         1 SUB1        0.000
    103 HD1        62.8252   19.8615   32.5645 H         1 SUB1        0.000
    104 HD2        59.4303   20.5689   35.0602 H         1 SUB1        0.000
    105 HE1        64.2962   19.9131   34.5427 H         1 SUB1        0.000
    106 HE2        60.8802   20.6206   37.0423 H         1 SUB1        0.000
    107 HZ         63.3125   20.2779   36.7934 H         1 SUB1        0.000
    108 HA         60.4098   16.2342   35.3750 H         1 SUB1        0.000
    109 HB2        61.2573   14.3707   33.1199 H         1 SUB1        0.000
    110 HB1        59.6017   14.6425   33.7613 H         1 SUB1        0.000
    111 HG2        60.2701   12.5295   34.5491 H         1 SUB1        0.000
    112 HG1        60.4285   13.6465   35.9469 H         1 SUB1        0.000
    113 HA         64.6928   16.0325   36.2213 H         1 SUB1        0.000
    114 HB3        63.4763   17.9960   38.2276 H         1 SUB1        0.000
    115 HB2        64.1747   18.4094   36.6252 H         1 SUB1        0.000
    116 HB1        65.2304   17.7566   37.9235 H         1 SUB1        0.000
    117 H4         65.2205   12.7213   38.8368 H         1 SUB1        0.000
    118 H5         67.1929   13.1023   40.4168 H         1 SUB1        0.000
    119 H6         67.3481   14.7155   39.6421 H         1 SUB1        0.000
    120 H7         68.8395   13.3912   38.4176 H         1 SUB1        0.000
    121 H8         67.3596   13.3811   37.3995 H         1 SUB1        0.000
    122 H9         66.8006   11.1670   38.0198 H         1 SUB1        0.000
    123 H10        67.8569   11.2071   39.4721 H         1 SUB1        0.000
    124 H11        68.8812    9.8535   37.6535 H         1 SUB1        0.000
    125 H12        69.8656   11.3136   38.0081 H         1 SUB1        0.000
    126 H13        68.8093   11.2735   36.5558 H         1 SUB1        0.000
    127 H14        63.3366   13.0096   41.6176 H         1 SUB1        0.000
    128 H15        63.7409   12.2446   40.1172 H         1 SUB1        0.000
@<TRIPOS>BOND
     1    2    3 1  
     2    2    5 1  
     3    2    1 1  
     4    1   14 1  
     5    1   13 1  
     6    1   12 1  
     7    5    6 1  
     8    6    7 1  
     9    7    8 1  
    10    8   15 1  
    11    8    9 ar 
    12    9   10 ar 
    13    9   11 ar 
    14   11   19 1  
    15   11   18 1  
    16   10   17 1  
    17   10   16 1  
    18    3    4 2  
    19   21   22 1  
    20   21   24 1  
    21   21   20 1  
    22   20   27 1  
    23   24   25 1  
    24   24   26 1  
    25   22   23 2  
    26   29   30 1  
    27   29   32 1  
    28   29   28 1  
    29   28   36 1  
    30   32   33 1  
    31   33   35 1  
    32   33   34 1  
    33   30   31 2  
    34   38   39 1  
    35   38   41 1  
    36   38   37 1  
    37   37   48 1  
    38   41   42 1  
    39   42   44 ar 
    40   42   43 ar 
    41   43   45 ar 
    42   45   47 ar 
    43   47   46 ar 
    44   46   44 ar 
    45   39   40 2  
    46   50   51 1  
    47   50   53 1  
    48   50   49 1  
    49   49   58 1  
    50   53   54 1  
    51   54   55 1  
    52   55   56 ar 
    53   55   57 ar 
    54   51   52 2  
    55   60   61 1  
    56   60   63 1  
    57   60   59 1  
    58   59   64 1  
    59   61   62 2  
    60   65   73 1  
    61   65   66 1  
    62   66   69 1  
    63   66   67 1  
    64   67   68 2  
    65   69   70 1  
    66   70   71 1  
    67   71   72 1  
    68    3   20 am 
    69   22   28 am 
    70   30   37 am 
    71   39   49 am 
    72   51   59 am 
    73   61   65 am 
    74   67   74 am 
    75    2   75 1  
    76    5   76 1  
    77    5   77 1  
    78    6   78 1  
    79    6   79 1  
    80    7   80 1  
    81    7   81 1  
    82   21   82 1  
    83   24   83 1  
    84   25   84 1  
    85   25   85 1  
    86   25   86 1  
    87   26   87 1  
    88   26   88 1  
    89   26   89 1  
    90   29   90 1  
    91   32   91 1  
    92   32   92 1  
    93   33   93 1  
    94   34   94 1  
    95   34   95 1  
    96   34   96 1  
    97   35   97 1  
    98   35   98 1  
    99   35   99 1  
   100   38  100 1  
   101   41  101 1  
   102   41  102 1  
   103   43  103 1  
   104   44  104 1  
   105   45  105 1  
   106   46  106 1  
   107   47  107 1  
   108   50  108 1  
   109   53  109 1  
   110   53  110 1  
   111   54  111 1  
   112   54  112 1  
   113   60  113 1  
   114   63  114 1  
   115   63  115 1  
   116   63  116 1  
   117   66  117 1  
   118   69  118 1  
   119   69  119 1  
   120   70  120 1  
   121   70  121 1  
   122   71  122 1  
   123   71  123 1  
   124   72  124 1  
   125   72  125 1  
   126   72  126 1  
   127   74  127 1  
   128   74  128 1  
@<TRIPOS>SUBSTRUCTURE
     1 SUB1        1 GROUP

