### Name: 1acj_ligand
### Creating user name: arthur
### Creation time: Tue Nov 27 11:30:28 2001


@<TRIPOS>MOLECULE
1acj_ligand
   29    31     1     0     0
SMALL
USER_CHARGES


@<TRIPOS>ATOM
      1 H1          7.1305   71.6006   69.7099 H         1 SUB1        0.000
      2 H2          7.7239   71.0564   67.3799 H         1 SUB1        0.000
      3 H3          3.0382   70.6086   68.9640 H         1 SUB1        0.000
      4 H4          4.8066   71.3785   70.4954 H         1 SUB1        0.000
      5 H5          6.2789   68.4842   63.3716 H         1 SUB1        0.000
      6 H6          6.5117   70.2290   63.0135 H         1 SUB1        0.000
      7 H7          5.1990   68.8760   61.2741 H         1 SUB1        0.000
      8 H8          4.4079   70.3756   61.8675 H         1 SUB1        0.000
      9 H9          3.8385   67.5171   62.8398 H         1 SUB1        0.000
     10 H10         2.7786   68.5077   61.7805 H         1 SUB1        0.000
     11 H11         2.2964   70.0614   63.5160 H         1 SUB1        0.000
     12 H12         2.1653   68.4381   64.2740 H         1 SUB1        0.000
     13 H13         1.7682   70.0139   67.5786 H         1 SUB1        0.000
     14 H14         1.4198   69.4790   65.9127 H         1 SUB1        0.000
     15 C1          6.3620   71.2610   69.0250 C.ar      1 SUB1        0.000
     16 C2          6.6970   70.9550   67.7120 C.ar      1 SUB1        0.000
     17 C3          5.7190   70.5180   66.8190 C.ar      1 SUB1        0.000
     18 C4          4.3510   70.3810   67.2600 C.ar      1 SUB1        0.000
     19 C5          4.0560   70.7020   68.6030 C.ar      1 SUB1        0.000
     20 C6          5.0530   71.1360   69.4680 C.ar      1 SUB1        0.000
     21 N7          6.0680   70.2360   65.5850 N.ar      1 SUB1        0.000
     22 C8          5.2070   69.8210   64.6830 C.ar      1 SUB1        0.000
     23 C9          3.8330   69.6340   64.9950 C.ar      1 SUB1        0.000
     24 C10         3.3960   69.9330   66.3090 C.ar      1 SUB1        0.000
     25 C11         5.7760   69.4590   63.2890 C.3       1 SUB1        0.000
     26 C12         4.7360   69.3630   62.1450 C.3       1 SUB1        0.000
     27 C13         3.5150   68.5400   62.5970 C.3       1 SUB1        0.000
     28 C14         2.8600   69.1770   63.8480 C.3       1 SUB1        0.000
     29 N15         2.0920   69.7980   66.6250 N.pl3     1 SUB1        0.000
@<TRIPOS>BOND
     1   15    1 1  
     2   16    2 1  
     3   19    3 1  
     4   20    4 1  
     5   25    5 1  
     6   25    6 1  
     7   26    7 1  
     8   26    8 1  
     9   27    9 1  
    10   27   10 1  
    11   28   11 1  
    12   28   12 1  
    13   29   13 1  
    14   29   14 1  
    15   15   16 ar 
    16   15   20 ar 
    17   16   17 ar 
    18   17   18 ar 
    19   17   21 ar 
    20   18   19 ar 
    21   18   24 ar 
    22   19   20 ar 
    23   21   22 ar 
    24   22   23 ar 
    25   22   25 1  
    26   23   24 ar 
    27   23   28 1  
    28   24   29 1  
    29   25   26 1  
    30   26   27 1  
    31   27   28 1  
@<TRIPOS>SUBSTRUCTURE
     1 SUB1        1 GROUP

