### Name: 1adb_ligand
### Creating user name: arthur
### Creation time: Tue Nov 27 11:30:17 2001


@<TRIPOS>MOLECULE
1adb_ligand
   69    73     1     0     0
SMALL
USER_CHARGES


@<TRIPOS>ATOM
      1 H1          5.3053  -12.5843  -28.6856 H         1 SUB1        0.000
      2 H2          4.1324  -12.2935  -30.0147 H         1 SUB1        0.000
      3 H3          4.7328  -14.8659  -30.5176 H         1 SUB1        0.000
      4 H4          6.6498  -14.3269  -28.5440 H         1 SUB1        0.000
      5 H5          7.7093  -16.2174  -29.3597 H         1 SUB1        0.000
      6 H6          7.9344  -12.8203  -29.8974 H         1 SUB1        0.000
      7 H7          9.6795  -14.1037  -30.6982 H         1 SUB1        0.000
      8 H8          7.2327  -14.6822  -32.2158 H         1 SUB1        0.000
      9 H9          8.5364  -11.3004  -31.0735 H         1 SUB1        0.000
     10 H10        10.2131  -10.1243  -36.7179 H         1 SUB1        0.000
     11 H11        10.2475   -9.6823  -34.9898 H         1 SUB1        0.000
     12 H12         7.8553  -14.0691  -36.8306 H         1 SUB1        0.000
     13 H13        -0.1366  -12.4366  -29.9804 H         1 SUB1        0.000
     14 H14         1.2940  -11.5276  -29.3857 H         1 SUB1        0.000
     15 H15        -0.1006  -10.1970  -30.9291 H         1 SUB1        0.000
     16 H16         0.9193   -9.4095  -28.4590 H         1 SUB1        0.000
     17 H17         0.7468   -7.3592  -29.4904 H         1 SUB1        0.000
     18 H18        -1.1736   -9.4552  -27.2611 H         1 SUB1        0.000
     19 H19        -1.5910   -7.1889  -27.1170 H         1 SUB1        0.000
     20 H20        -2.2374   -8.2688  -29.8558 H         1 SUB1        0.000
     21 H21        -4.4441   -8.9832  -30.5861 H         1 SUB1        0.000
     22 H22        -7.5448   -8.4255  -31.8330 H         1 SUB1        0.000
     23 H23        -5.8635   -8.6803  -31.5037 H         1 SUB1        0.000
     24 H24        -7.0976   -9.5212  -27.2978 H         1 SUB1        0.000
     25 H25        -2.8567   -9.8143  -26.6812 H         1 SUB1        0.000
     26 AP          3.4610  -13.5110  -27.0960 P.3       1 SUB1        0.000
     27 AO1         4.6790  -12.7260  -26.7690 O.co2     1 SUB1       -0.500
     28 AO2         3.2610  -14.6840  -26.2150 O.co2     1 SUB1       -0.500
     29 AO5'        3.6050  -13.8090  -28.6670 O.3       1 SUB1        0.000
     30 AC5'        4.6170  -13.0640  -29.3970 C.3       1 SUB1        0.000
     31 AC4'        5.3910  -14.0150  -30.2880 C.3       1 SUB1        0.000
     32 AO4'        5.7730  -13.3930  -31.5110 O.3       1 SUB1        0.000
     33 AC3'        6.6640  -14.5550  -29.6200 C.3       1 SUB1        0.000
     34 AO3'        6.9060  -15.9730  -29.8040 O.3       1 SUB1        0.000
     35 AC2'        7.7640  -13.8180  -30.3280 C.3       1 SUB1        0.000
     36 AO2'        8.9870  -14.5740  -30.2490 O.3       1 SUB1        0.000
     37 AC1'        7.1550  -13.7090  -31.7090 C.3       1 SUB1        0.000
     38 AN9         7.8430  -12.7120  -32.5370 N.pl3     1 SUB1        0.000
     39 AC8         8.4960  -11.6160  -32.1150 C.2       1 SUB1        0.000
     40 AN7         9.0920  -10.9540  -33.1160 N.2       1 SUB1        0.000
     41 AC5         8.7800  -11.6990  -34.1660 C.2       1 SUB1        0.000
     42 AC6         9.1830  -11.3850  -35.4540 C.2       1 SUB1        0.000
     43 AN6         9.9400  -10.3140  -35.7430 N.pl3     1 SUB1        0.000
     44 AN1         8.8150  -12.2990  -36.3650 N.2       1 SUB1        0.000
     45 AC2         8.1180  -13.3700  -36.0380 C.2       1 SUB1        0.000
     46 AN3         7.7190  -13.6480  -34.8120 N.2       1 SUB1        0.000
     47 AC4         8.0380  -12.8060  -33.8360 C.2       1 SUB1        0.000
     48 O3          2.1120  -12.6750  -27.2020 O.3       1 SUB1        0.000
     49 NP          0.6050  -13.0640  -27.2380 P.3       1 SUB1        0.000
     50 NO1         0.1540  -12.9160  -25.8660 O.co2     1 SUB1       -0.500
     51 NO2         0.3200  -14.2850  -28.0540 O.co2     1 SUB1       -0.500
     52 NO5'       -0.1800  -11.9120  -27.9650 O.3       1 SUB1        0.000
     53 NC5'        0.1980  -11.6080  -29.3390 C.3       1 SUB1        0.000
     54 NC4'       -0.3980  -10.3180  -29.8770 C.3       1 SUB1        0.000
     55 NO4'       -1.8300  -10.3240  -29.7620 O.3       1 SUB1        0.000
     56 NC3'        0.0490   -9.1370  -29.0740 C.3       1 SUB1        0.000
     57 NO3'        0.4580   -8.1210  -29.9790 O.3       1 SUB1        0.000
     58 NC2'       -1.1020   -8.7990  -28.1410 C.3       1 SUB1        0.000
     59 NO2'       -0.8910   -7.4450  -27.7060 O.3       1 SUB1        0.000
     60 NC1'       -2.1970   -9.0970  -29.1330 C.3       1 SUB1        0.000
     61 NC1        -3.5530   -9.3680  -28.6570 C.ar      1 SUB1        0.000
     62 NC2        -4.6180   -9.1550  -29.5300 C.ar      1 SUB1        0.000
     63 NC3        -5.8940   -9.1680  -29.0200 C.ar      1 SUB1        0.000
     64 NC7        -7.0990   -8.8600  -29.8900 C.2       1 SUB1        0.000
     65 NO7        -8.2450   -8.8470  -29.3950 O.2       1 SUB1        0.000
     66 NN7        -6.8110   -8.6360  -31.1870 N.am      1 SUB1        0.000
     67 NC4        -6.0870   -9.4670  -27.6860 C.ar      1 SUB1        0.000
     68 NN5        -5.0110   -9.7020  -26.8220 N.ar      1 SUB1        0.000
     69 NC6        -3.7130   -9.6450  -27.3240 C.ar      1 SUB1        0.000
@<TRIPOS>BOND
     1   30    1 1  
     2   30    2 1  
     3   31    3 1  
     4   33    4 1  
     5   34    5 1  
     6   35    6 1  
     7   36    7 1  
     8   37    8 1  
     9   39    9 1  
    10   43   10 1  
    11   43   11 1  
    12   45   12 1  
    13   53   13 1  
    14   53   14 1  
    15   54   15 1  
    16   56   16 1  
    17   57   17 1  
    18   58   18 1  
    19   59   19 1  
    20   60   20 1  
    21   62   21 1  
    22   66   22 1  
    23   66   23 1  
    24   67   24 1  
    25   69   25 1  
    26   26   27 ar 
    27   26   28 ar 
    28   26   29 1  
    29   26   48 1  
    30   29   30 1  
    31   30   31 1  
    32   31   32 1  
    33   31   33 1  
    34   32   37 1  
    35   33   34 1  
    36   33   35 1  
    37   35   36 1  
    38   35   37 1  
    39   37   38 1  
    40   38   39 1  
    41   38   47 1  
    42   39   40 2  
    43   40   41 1  
    44   41   42 1  
    45   41   47 2  
    46   42   43 1  
    47   42   44 2  
    48   44   45 1  
    49   45   46 2  
    50   46   47 1  
    51   48   49 1  
    52   49   50 ar 
    53   49   51 ar 
    54   49   52 1  
    55   52   53 1  
    56   53   54 1  
    57   54   55 1  
    58   54   56 1  
    59   55   60 1  
    60   56   57 1  
    61   56   58 1  
    62   58   59 1  
    63   58   60 1  
    64   60   61 1  
    65   61   62 ar 
    66   61   69 ar 
    67   62   63 ar 
    68   63   64 1  
    69   63   67 ar 
    70   64   65 2  
    71   64   66 am 
    72   67   68 ar 
    73   68   69 ar 
@<TRIPOS>SUBSTRUCTURE
     1 SUB1        1 GROUP

