### Name: 1adf_ligand
### Creating user name: arthur
### Creation time: Tue Nov 27 11:30:28 2001


@<TRIPOS>MOLECULE
1adf_ligand
   68    72     1     0     0
SMALL
USER_CHARGES


@<TRIPOS>ATOM
      1 H1         13.8727    5.4924   29.5256 H         1 SUB1        0.000
      2 H2         12.9604    6.4409   30.7482 H         1 SUB1        0.000
      3 H3         15.0001    8.0759   30.6476 H         1 SUB1        0.000
      4 H4         15.9771    6.3253   28.7241 H         1 SUB1        0.000
      5 H5         17.9700    7.3747   29.2509 H         1 SUB1        0.000
      6 H6         16.3011    4.4261   30.1535 H         1 SUB1        0.000
      7 H7         18.5508    4.5172   30.7279 H         1 SUB1        0.000
      8 H8         17.2521    6.3494   32.3104 H         1 SUB1        0.000
      9 H9         15.3034    3.1043   31.5807 H         1 SUB1        0.000
     10 H10        15.4501    1.6831   37.3695 H         1 SUB1        0.000
     11 H11        14.9797    1.3169   35.6880 H         1 SUB1        0.000
     12 H12        17.6078    5.7665   37.0431 H         1 SUB1        0.000
     13 H13        11.9700    8.2058   25.8924 H         1 SUB1        0.000
     14 H14        13.6595    8.8159   25.8832 H         1 SUB1        0.000
     15 H15        10.4781    8.4659   25.9420 H         1 SUB1        0.000
     16 H16         8.9569    8.8640   26.8104 H         1 SUB1        0.000
     17 H17        11.1341    6.8553   27.6217 H         1 SUB1        0.000
     18 H18         8.2336    6.7998   26.7790 H         1 SUB1        0.000
     19 H19         8.9716    4.6247   26.3284 H         1 SUB1        0.000
     20 H20         7.6292    5.3613   28.6307 H         1 SUB1        0.000
     21 H21         9.2380    4.2127   29.8237 H         1 SUB1        0.000
     22 H22         8.9612    6.5998   30.6180 H         1 SUB1        0.000
     23 H23         5.7153   10.6164   28.9246 H         1 SUB1        0.000
     24 H24         3.3011    6.5356   27.7877 H         1 SUB1        0.000
     25 H25         4.9982    6.2864   28.0278 H         1 SUB1        0.000
     26 AP         13.3710    6.9930   27.3760 P.3       1 SUB1        0.000
     27 AO1        12.5700    5.7240   27.2580 O.co2     1 SUB1       -0.500
     28 AO2        14.7670    6.9720   26.8400 O.co2     1 SUB1       -0.500
     29 AO5'       13.3000    7.4050   28.9340 O.3       1 SUB1        0.000
     30 AC5'       13.7270    6.4920   29.9610 C.3       1 SUB1        0.000
     31 AC4'       15.0370    6.9800   30.5600 C.3       1 SUB1        0.000
     32 AO4'       15.2220    6.3800   31.8490 O.3       1 SUB1        0.000
     33 AC3'       16.2530    6.5760   29.7590 C.3       1 SUB1        0.000
     34 AO3'       17.2090    7.6360   29.7560 O.3       1 SUB1        0.000
     35 AC2'       16.7890    5.3560   30.4810 C.3       1 SUB1        0.000
     36 AO2'       18.2070    5.2800   30.2780 O.3       1 SUB1        0.000
     37 AC1'       16.4690    5.6870   31.9130 C.3       1 SUB1        0.000
     38 AN9        16.3450    4.5300   32.8230 N.pl3     1 SUB1        0.000
     39 AC8        15.6490    3.4040   32.5690 C.2       1 SUB1        0.000
     40 AN7        15.4370    2.7000   33.6920 N.2       1 SUB1        0.000
     41 AC5        16.0540    3.4070   34.6300 C.2       1 SUB1        0.000
     42 AC6        16.0430    3.0480   35.9600 C.2       1 SUB1        0.000
     43 AN6        15.4460    1.9320   36.3700 N.pl3     1 SUB1        0.000
     44 AN1        16.6330    3.9410   36.7770 N.2       1 SUB1        0.000
     45 AC2        17.1680    5.0770   36.3240 C.2       1 SUB1        0.000
     46 AN3        17.1890    5.4060   35.0360 N.2       1 SUB1        0.000
     47 AC4        16.6210    4.5630   34.1400 C.2       1 SUB1        0.000
     48 C3         12.8290    8.4810   26.5220 C.3       1 SUB1        0.000
     49 NP         12.3240    9.8950   27.5450 P.3       1 SUB1        0.000
     50 NO1        12.5530   11.1220   26.7060 O.co2     1 SUB1       -0.500
     51 NO2        13.0290    9.9420   28.8760 O.co2     1 SUB1       -0.500
     52 NO5'       10.7080    9.6650   27.6530 O.3       1 SUB1        0.000
     53 NC5'       10.0180    8.6010   26.9320 C.3       1 SUB1        0.000
     54 NC4'       10.1380    7.3080   27.7350 C.3       1 SUB1        0.000
     55 NO4'        9.9010    7.7280   29.0740 O.3       1 SUB1        0.000
     56 NC3'        9.0660    6.3250   27.3190 C.3       1 SUB1        0.000
     57 NO3'        9.6520    5.2360   26.5850 O.3       1 SUB1        0.000
     58 NC2'        8.6750    5.7020   28.6470 C.3       1 SUB1        0.000
     59 NO2'        9.5150    4.5720   28.9890 O.3       1 SUB1        0.000
     60 NC1'        8.8310    6.9110   29.5710 C.3       1 SUB1        0.000
     61 NC2         7.7110    7.8670   29.3790 C.2       1 SUB1        0.000
     62 NN3         6.5170    7.3920   29.0220 N.2       1 SUB1        0.000
     63 NC4         5.7250    8.4540   28.8670 C.2       1 SUB1        0.000
     64 NC5         6.2650    9.6870   29.0660 C.2       1 SUB1        0.000
     65 NS1         7.9390    9.6180   29.5740 S.3       1 SUB1        0.000
     66 NC6         4.3190    8.1320   28.4970 C.2       1 SUB1        0.000
     67 NO6         3.3670    8.9060   28.5710 O.2       1 SUB1        0.000
     68 NN6         4.1960    6.8820   28.0690 N.am      1 SUB1        0.000
@<TRIPOS>BOND
     1   30    1 1  
     2   30    2 1  
     3   31    3 1  
     4   33    4 1  
     5   34    5 1  
     6   35    6 1  
     7   36    7 1  
     8   37    8 1  
     9   39    9 1  
    10   43   10 1  
    11   43   11 1  
    12   45   12 1  
    13   48   13 1  
    14   48   14 1  
    15   53   15 1  
    16   53   16 1  
    17   54   17 1  
    18   56   18 1  
    19   57   19 1  
    20   58   20 1  
    21   59   21 1  
    22   60   22 1  
    23   64   23 1  
    24   68   24 1  
    25   68   25 1  
    26   26   27 ar 
    27   26   28 ar 
    28   26   29 1  
    29   26   48 1  
    30   29   30 1  
    31   30   31 1  
    32   31   32 1  
    33   31   33 1  
    34   32   37 1  
    35   33   34 1  
    36   33   35 1  
    37   35   36 1  
    38   35   37 1  
    39   37   38 1  
    40   38   39 1  
    41   38   47 1  
    42   39   40 2  
    43   40   41 1  
    44   41   42 1  
    45   41   47 2  
    46   42   43 1  
    47   42   44 2  
    48   44   45 1  
    49   45   46 2  
    50   46   47 1  
    51   48   49 1  
    52   49   50 ar 
    53   49   51 ar 
    54   49   52 1  
    55   52   53 1  
    56   53   54 1  
    57   54   55 1  
    58   54   56 1  
    59   55   60 1  
    60   56   57 1  
    61   56   58 1  
    62   58   59 1  
    63   58   60 1  
    64   60   61 1  
    65   61   62 2  
    66   61   65 1  
    67   62   63 1  
    68   63   64 2  
    69   63   66 1  
    70   64   65 1  
    71   66   67 2  
    72   66   68 am 
@<TRIPOS>SUBSTRUCTURE
     1 SUB1        1 GROUP

