### Name: 1apb_ligand
### Creating user name: arthur
### Creation time: Tue Nov 27 11:30:17 2001


@<TRIPOS>MOLECULE
1apb_ligand
   23    23     1     0     0
SMALL
USER_CHARGES


@<TRIPOS>ATOM
      1 C1         14.2590   56.4290   55.0020 C.3       1 SUB1        0.000
      2 C2         12.8940   56.9600   54.6440 C.3       1 SUB1        0.000
      3 C3         12.4620   56.2850   53.3440 C.3       1 SUB1        0.000
      4 C4         13.4770   56.4860   52.2310 C.3       1 SUB1        0.000
      5 C5         14.8130   55.9620   52.7210 C.3       1 SUB1        0.000
      6 C6         15.8950   56.1350   51.6700 C.3       1 SUB1        0.000
      7 O1         14.8690   57.0610   56.1230 O.3       1 SUB1        0.000
      8 O2         11.8910   56.6950   55.6320 O.3       1 SUB1        0.000
      9 O3         11.1250   56.6440   52.9780 O.3       1 SUB1        0.000
     10 O4         13.4710   57.8220   51.7090 O.3       1 SUB1        0.000
     11 O5         15.1850   56.6440   53.9280 O.3       1 SUB1        0.000
     12 ****       14.1609   55.3522   55.2039 H         1 SUB1        0.000
     13 ****       12.9652   58.0478   54.4968 H         1 SUB1        0.000
     14 ****       12.4429   55.2039   53.5462 H         1 SUB1        0.000
     15 ****       13.1752   55.8399   51.3935 H         1 SUB1        0.000
     16 ****       14.7085   54.8889   52.9388 H         1 SUB1        0.000
     17 ****       16.8480   55.7456   52.0574 H         1 SUB1        0.000
     18 ****       16.0057   57.2028   51.4300 H         1 SUB1        0.000
     19 ****       15.6153   55.5819   50.7612 H         1 SUB1        0.000
     20 ****       15.7207   56.6711   56.2816 H         1 SUB1        0.000
     21 ****       12.1380   57.1059   56.4521 H         1 SUB1        0.000
     22 ****       10.5442   56.4950   53.7148 H         1 SUB1        0.000
     23 ****       12.5913   58.0498   51.4320 H         1 SUB1        0.000
@<TRIPOS>BOND
     1    1    2 1  
     2    1    7 1  
     3    1   11 1  
     4    2    3 1  
     5    2    8 1  
     6    3    4 1  
     7    3    9 1  
     8    4    5 1  
     9    4   10 1  
    10    5    6 1  
    11    5   11 1  
    12    1   12 1  
    13    2   13 1  
    14    3   14 1  
    15    4   15 1  
    16    5   16 1  
    17    6   17 1  
    18    6   18 1  
    19    6   19 1  
    20    7   20 1  
    21    8   21 1  
    22    9   22 1  
    23   10   23 1  
@<TRIPOS>SUBSTRUCTURE
     1 SUB1        1 GROUP

