### Name: 1apu_ligand
### Creating user name: arthur
### Creation time: Tue Nov 27 11:30:17 2001


@<TRIPOS>MOLECULE
1apu_ligand
   81    80     1     0     0
SMALL
USER_CHARGES


@<TRIPOS>ATOM
      1 CA         15.8690    4.3700   17.6520 C.3       1 SUB1        0.000
      2 CB         14.4350    4.4960   18.1710 C.3       1 SUB1        0.000
      3 CG1        13.5390    3.3530   17.7400 C.3       1 SUB1        0.000
      4 CG2        14.3680    4.7510   19.6640 C.3       1 SUB1        0.000
      5 C          16.9720    4.6170   18.6700 C.2       1 SUB1        0.000
      6 O          17.0350    3.8640   19.6860 O.2       1 SUB1        0.000
      7 N          17.8230    5.5970   18.4620 N.am      1 SUB1        0.000
      8 CA         18.9900    5.8600   19.2950 C.3       1 SUB1        0.000
      9 C          18.9450    7.1940   20.0250 C.2       1 SUB1        0.000
     10 O          18.1640    8.0550   19.5630 O.2       1 SUB1        0.000
     11 CB         20.2140    5.8900   18.3140 C.3       1 SUB1        0.000
     12 CG1        20.5330    4.5160   17.7300 C.3       1 SUB1        0.000
     13 CG2        20.0640    6.8310   17.1240 C.3       1 SUB1        0.000
     14 N          19.7660    7.3430   21.0400 N.am      1 SUB1        0.000
     15 CA         19.8570    8.6710   21.7260 C.3       1 SUB1        0.000
     16 C          21.3700    8.9950   21.8100 C.2       1 SUB1        0.000
     17 O          21.9600    8.4640   22.7750 O.2       1 SUB1        0.000
     18 CB         19.1580    8.6670   23.0690 C.3       1 SUB1        0.000
     19 CG1        19.0640   10.0530   23.7460 C.3       1 SUB1        0.000
     20 CG2        17.7590    8.1090   22.9570 C.3       1 SUB1        0.000
     21 N          21.9000    9.7750   20.8850 N.am      1 SUB1        0.000
     22 CA         23.3400   10.1170   20.8750 C.3       1 SUB1        0.000
     23 CB         23.9740    9.6530   19.5500 C.3       1 SUB1        0.000
     24 CG         23.7680    8.1780   19.2410 C.3       1 SUB1        0.000
     25 CD1        24.2370    7.8530   17.8320 C.3       1 SUB1        0.000
     26 CD2        24.4680    7.2820   20.2760 C.3       1 SUB1        0.000
     27 CH         23.4830   11.6370   21.1040 C.3       1 SUB1        0.000
     28 OH         23.0310   12.4140   20.1680 O.3       1 SUB1        0.000
     29 CM         22.6430   11.8060   22.3740 C.3       1 SUB1        0.000
     30 C          23.6030   12.3260   23.4280 C.2       1 SUB1        0.000
     31 O          23.9360   11.4700   24.3050 O.2       1 SUB1        0.000
     32 OXT        23.2260   13.6020   23.6340 O.3       1 SUB1        0.000
     33 C9         22.0950   13.8650   24.5630 C.3       1 SUB1        0.000
     34 C10        22.5400   14.7830   25.6900 C.3       1 SUB1        0.000
     35 H          17.6593    6.2011   17.6821 H         1 SUB1        0.000
     36 HA         19.1024    5.0517   20.0326 H         1 SUB1        0.000
     37 HB         21.0805    6.2258   18.9026 H         1 SUB1        0.000
     38 HG13       20.7813    3.8200   18.5448 H         1 SUB1        0.000
     39 HG12       21.3895    4.5987   17.0447 H         1 SUB1        0.000
     40 HG11       19.6582    4.1393   17.1797 H         1 SUB1        0.000
     41 HG23       19.1959    6.5249   16.5217 H         1 SUB1        0.000
     42 HG22       20.9727    6.7880   16.5057 H         1 SUB1        0.000
     43 HG21       19.9151    7.8590   17.4859 H         1 SUB1        0.000
     44 H          20.3258    6.5754   21.3520 H         1 SUB1        0.000
     45 HA         19.3673    9.4324   21.1012 H         1 SUB1        0.000
     46 HB         19.7398    8.0104   23.7326 H         1 SUB1        0.000
     47 HG13       20.0768   10.4441   23.9228 H         1 SUB1        0.000
     48 HG12       18.5353    9.9572   24.7058 H         1 SUB1        0.000
     49 HG11       18.5130   10.7443   23.0914 H         1 SUB1        0.000
     50 HG23       17.1702    8.7314   22.2671 H         1 SUB1        0.000
     51 HG22       17.2832    8.1102   23.9488 H         1 SUB1        0.000
     52 HG21       17.8046    7.0790   22.5736 H         1 SUB1        0.000
     53 ****       15.9962    5.0961   16.8355 H         1 SUB1        0.000
     54 ****       15.9961    3.3504   17.2592 H         1 SUB1        0.000
     55 ****       14.0230    5.3968   17.6927 H         1 SUB1        0.000
     56 ****       12.5282    3.5064   18.1458 H         1 SUB1        0.000
     57 ****       13.9464    2.4044   18.1197 H         1 SUB1        0.000
     58 ****       13.4917    3.3182   16.6416 H         1 SUB1        0.000
     59 ****       15.0341    5.5871   19.9234 H         1 SUB1        0.000
     60 ****       14.6859    3.8475   20.2049 H         1 SUB1        0.000
     61 ****       13.3354    5.0035   19.9469 H         1 SUB1        0.000
     62 ****       21.3094   10.1463   20.1685 H         1 SUB1        0.000
     63 ****       23.8414    9.5906   21.7005 H         1 SUB1        0.000
     64 ****       25.0556    9.8470   19.5989 H         1 SUB1        0.000
     65 ****       23.5326   10.2413   18.7321 H         1 SUB1        0.000
     66 ****       22.6890    7.9710   19.2941 H         1 SUB1        0.000
     67 ****       24.0789    6.7832   17.6306 H         1 SUB1        0.000
     68 ****       25.3071    8.0895   17.7380 H         1 SUB1        0.000
     69 ****       23.6643    8.4510   17.1078 H         1 SUB1        0.000
     70 ****       24.1106    7.5383   21.2842 H         1 SUB1        0.000
     71 ****       25.5553    7.4393   20.2215 H         1 SUB1        0.000
     72 ****       24.2389    6.2275   20.0628 H         1 SUB1        0.000
     73 ****       24.5378   11.8926   21.2827 H         1 SUB1        0.000
     74 ****       23.1709   13.3208   20.4142 H         1 SUB1        0.000
     75 ****       22.2171   10.8406   22.6847 H         1 SUB1        0.000
     76 ****       21.8304   12.5278   22.2044 H         1 SUB1        0.000
     77 ****       21.7453   12.9125   24.9877 H         1 SUB1        0.000
     78 ****       21.2738   14.3429   24.0087 H         1 SUB1        0.000
     79 ****       21.6937   14.9680   26.3680 H         1 SUB1        0.000
     80 ****       22.8883   15.7378   25.2693 H         1 SUB1        0.000
     81 ****       23.3598   14.3074   26.2483 H         1 SUB1        0.000
@<TRIPOS>BOND
     1    8    7 1  
     2    8   11 1  
     3    8    9 1  
     4    9   10 2  
     5   11   13 1  
     6   11   12 1  
     7   15   14 1  
     8   15   18 1  
     9   15   16 1  
    10   16   17 2  
    11   18   20 1  
    12   18   19 1  
    13    9   14 am 
    14    1    2 1  
    15    1    5 1  
    16    2    3 1  
    17    2    4 1  
    18    5    6 2  
    19    5    7 am 
    20   16   21 am 
    21   21   22 1  
    22   22   23 1  
    23   22   27 1  
    24   23   24 1  
    25   24   25 1  
    26   24   26 1  
    27   27   28 1  
    28   27   29 1  
    29   29   30 1  
    30   30   31 2  
    31   30   32 1  
    32   32   33 1  
    33   33   34 1  
    34    7   35 1  
    35    8   36 1  
    36   11   37 1  
    37   12   38 1  
    38   12   39 1  
    39   12   40 1  
    40   13   41 1  
    41   13   42 1  
    42   13   43 1  
    43   14   44 1  
    44   15   45 1  
    45   18   46 1  
    46   19   47 1  
    47   19   48 1  
    48   19   49 1  
    49   20   50 1  
    50   20   51 1  
    51   20   52 1  
    52    1   53 1  
    53    1   54 1  
    54    2   55 1  
    55    3   56 1  
    56    3   57 1  
    57    3   58 1  
    58    4   59 1  
    59    4   60 1  
    60    4   61 1  
    61   21   62 1  
    62   22   63 1  
    63   23   64 1  
    64   23   65 1  
    65   24   66 1  
    66   25   67 1  
    67   25   68 1  
    68   25   69 1  
    69   26   70 1  
    70   26   71 1  
    71   26   72 1  
    72   27   73 1  
    73   28   74 1  
    74   29   75 1  
    75   29   76 1  
    76   33   77 1  
    77   33   78 1  
    78   34   79 1  
    79   34   80 1  
    80   34   81 1  
@<TRIPOS>SUBSTRUCTURE
     1 SUB1        1 GROUP

