#	Name:			1ba8_ligand
#	Creating user name:	arthur
#	Creation time:		Mon Feb 25 23:47:54 2002

#	Modifying user name:	arthur
#	Modification time:	Mon Feb 25 23:48:37 2002

@<TRIPOS>MOLECULE
1ba8_ligand
   63    64     1     0     0
SMALL
USER_CHARGES
INVALID_CHARGES

@<TRIPOS>ATOM
      1 H1         18.7589  -17.8460   26.7928 H         1 SUB1        0.0000 
      2 H2         17.7421  -16.3770   26.6064 H         1 SUB1        0.0000 
      3 H3         18.6311  -14.3613   26.3166 H         1 SUB1        0.0000 
      4 H4         20.6169  -12.9340   25.9868 H         1 SUB1        0.0000 
      5 H5         22.7982  -13.8636   25.3879 H         1 SUB1        0.0000 
      6 H6         23.0257  -16.3186   25.1324 H         1 SUB1        0.0000 
      7 H7         21.0572  -17.7861   25.4819 H         1 SUB1        0.0000 
      8 H8         16.4795  -16.1685   23.4582 H         1 SUB1        0.0000 
      9 H9         19.2718  -15.5990   23.5566 H         1 SUB1        0.0000 
     10 H10        18.2115  -16.7855   21.0375 H         1 SUB1        0.0000 
     11 H11        19.5592  -17.3563   22.0789 H         1 SUB1        0.0000 
     12 S          17.8190  -17.6730   24.6280 S.o2      1 SUB1        0.0000 
     13 O1S        16.5900  -18.2410   24.9980 O.2       1 SUB1        0.0000 
     14 O2S        18.8640  -18.3330   23.9230 O.2       1 SUB1        0.0000 
     15 C          18.5050  -17.0080   26.1270 C.3       1 SUB1        0.0000 
     16 C1         19.7260  -16.1890   25.9210 C.ar      1 SUB1        0.0000 
     17 C2         19.5880  -14.8030   26.0630 C.ar      1 SUB1        0.0000 
     18 C3         20.7160  -14.0070   25.8690 C.ar      1 SUB1        0.0000 
     19 C4         21.9460  -14.5170   25.5360 C.ar      1 SUB1        0.0000 
     20 C5         22.0680  -15.8840   25.3950 C.ar      1 SUB1        0.0000 
     21 C6         20.9500  -16.7130   25.5920 C.ar      1 SUB1        0.0000 
     22 N          17.4360  -16.4350   23.5770 N.am      1 SUB1        1.0000 
     23 CA         18.4420  -15.7570   22.8520 C.3       1 SUB1        0.0000 
     24 CB         19.0330  -16.4690   21.6970 C.3       1 SUB1        0.0000 
     25 CG         19.9950  -15.6810   20.8840 C.3       1 SUB1        0.0000 
     26 C          17.9020  -14.3370   22.4450 C.2       1 SUB1        0.0000 
     27 CD         19.7720  -14.1610   20.8010 C.3       1 SUB1        0.0000 
     28 O          16.8830  -13.9820   22.9910 O.2       1 SUB1        0.0000 
     29 N          18.5700  -13.7210   21.5090 N.am      1 SUB1        0.0000 
     30 CA         18.0610  -12.3810   21.1590 C.3       1 SUB1        0.0000 
     31 C          16.7650  -12.5590   20.3690 C.2       1 SUB1        0.0000 
     32 O          16.5080  -13.6410   19.8490 O.2       1 SUB1        0.0000 
     33 N          15.9480  -11.5220   20.4040 N.am      1 SUB1        0.0000 
     34 CA         14.6430  -11.5230   19.6890 C.3       1 SUB1        0.0000 
     35 C          14.7650  -10.7360   18.4010 C.2       1 SUB1        0.0000 
     36 O          13.7430  -10.2930   17.8470 O.co2     1 SUB1       -0.5000 
     37 CB         13.5370  -10.9750   20.5490 C.3       1 SUB1        0.0000 
     38 CG         13.1190  -11.9050   21.6620 C.3       1 SUB1        0.0000 
     39 CD         12.1690  -11.2620   22.5840 C.3       1 SUB1        0.0000 
     40 NE         11.6040  -12.2630   23.4450 N.pl3     1 SUB1        0.0000 
     41 CZ         10.8140  -12.0520   24.4600 C.cat     1 SUB1        0.0000 
     42 NH1        10.5110  -10.7690   24.7930 N.pl3     1 SUB1        0.5000 
     43 NH2        10.1950  -13.0590   25.1040 N.pl3     1 SUB1        0.5000 
     44 O1         15.8989  -10.5303   17.8916 O.co2     1 SUB1       -0.5000 
     45 H12        19.9613  -16.0760   19.8579 H         1 SUB1        0.0000 
     46 H13        20.9969  -15.8450   21.3074 H         1 SUB1        0.0000 
     47 H14        20.6435  -13.6542   21.2410 H         1 SUB1        0.0000 
     48 H15        19.6789  -13.8776   19.7422 H         1 SUB1        0.0000 
     49 H16        17.8634  -11.8058   22.0755 H         1 SUB1        0.0000 
     50 H17        18.8024  -11.8489   20.5448 H         1 SUB1        0.0000 
     51 H18        16.2143  -10.7120   20.9265 H         1 SUB1        0.0000 
     52 H19        14.3915  -12.5636   19.4361 H         1 SUB1        0.0000 
     53 H20        12.6626  -10.7825   19.9100 H         1 SUB1        0.0000 
     54 H21        13.8797  -10.0301   20.9958 H         1 SUB1        0.0000 
     55 H22        14.0128  -12.2089   22.2266 H         1 SUB1        0.0000 
     56 H23        12.6427  -12.7941   21.2231 H         1 SUB1        0.0000 
     57 H24        11.3677  -10.7757   22.0082 H         1 SUB1        0.0000 
     58 H25        12.6946  -10.5088   23.1893 H         1 SUB1        0.0000 
     59 H26        11.8467  -13.2429   23.2405 H         1 SUB1        0.0000 
     60 H27         9.8888  -10.5773   25.5912 H         1 SUB1        0.0000 
     61 H28        10.9036   -9.9888   24.2471 H         1 SUB1        0.0000 
     62 H29        10.4139  -14.0362   24.8629 H         1 SUB1        0.0000 
     63 H30         9.5024  -12.8524   25.8379 H         1 SUB1        0.0000 
@<TRIPOS>BOND
     1   27   29 1    
     2   15    1 1    
     3   15    2 1    
     4   17    3 1    
     5   18    4 1    
     6   19    5 1    
     7   20    6 1    
     8   21    7 1    
     9   22    8 1    
    10   23    9 1    
    11   12   15 1    
    12   12   14 2    
    13   12   13 2    
    14   15   16 1    
    15   16   21 ar   
    16   16   17 ar   
    17   17   18 ar   
    18   18   19 ar   
    19   20   19 ar   
    20   21   20 ar   
    21   22   23 1    
    22   23   26 1    
    23   23   24 1    
    24   24   25 1    
    25   25   27 1    
    26   26   28 2    
    27   30   31 1    
    28   29   30 1    
    29   31   32 2    
    30   34   35 1    
    31   34   37 1    
    32   33   34 1    
    33   37   38 1    
    34   38   39 1    
    35   39   40 1    
    36   40   41 ar   
    37   41   42 ar   
    38   41   43 ar   
    39   35   36 ar   
    40   31   33 am   
    41   12   22 1    
    42   26   29 am   
    43   35   44 ar   
    44   24   10 1    
    45   24   11 1    
    46   25   45 1    
    47   25   46 1    
    48   27   47 1    
    49   27   48 1    
    50   30   49 1    
    51   30   50 1    
    52   33   51 1    
    53   34   52 1    
    54   37   53 1    
    55   37   54 1    
    56   38   55 1    
    57   38   56 1    
    58   39   57 1    
    59   39   58 1    
    60   40   59 1    
    61   42   60 1    
    62   42   61 1    
    63   43   62 1    
    64   43   63 1    
@<TRIPOS>SUBSTRUCTURE
     1 SUB1        1 GROUP             0 ****  ****    0 ROOT 
