### Name: 1bai_ligand
### Creating user name: arthur
### Creation time: Tue Nov 27 11:30:17 2001


@<TRIPOS>MOLECULE
1bai_ligand
  128   128     1     0     0
SMALL
USER_CHARGES


@<TRIPOS>ATOM
      1 N           9.0110   16.0520   33.5660 N.4       1 SUB1        1.000
      2 CA          7.7380   15.7040   34.2690 C.3       1 SUB1        0.000
      3 C           6.5830   16.5830   33.6910 C.2       1 SUB1        0.000
      4 O           6.7320   17.8130   33.5640 O.2       1 SUB1        0.000
      5 CB          7.9330   15.8910   35.7790 C.3       1 SUB1        0.000
      6 CG          6.7740   15.3950   36.7100 C.3       1 SUB1        0.000
      7 CD          6.9490   13.9610   37.3230 C.3       1 SUB1        0.000
      8 NE          7.4490   13.9370   38.7040 N.pl3     1 SUB1        0.000
      9 CZ          6.7710   14.3790   39.7660 C.cat     1 SUB1        0.000
     10 NH1         5.5520   14.8650   39.6020 N.pl3     1 SUB1        0.500
     11 NH2         7.3540   14.4510   40.9720 N.pl3     1 SUB1        0.500
     12 H1          8.9210   15.9360   32.5470 H         1 SUB1        0.000
     13 H2          9.2060   17.0550   33.8130 H         1 SUB1        0.000
     14 H3          9.7820   15.4530   33.9010 H         1 SUB1        0.000
     15 HE          8.3470   13.5730   38.8700 H         1 SUB1        0.000
     16 HH11        5.1420   14.8960   38.6920 H         1 SUB1        0.000
     17 HH12        5.0350   15.1990   40.3920 H         1 SUB1        0.000
     18 HH21        8.3050   14.1720   41.0930 H         1 SUB1        0.000
     19 HH22        6.8260   14.7880   41.7540 H         1 SUB1        0.000
     20 N           5.4770   15.9390   33.2840 N.am      1 SUB1        0.000
     21 CA          4.3340   16.6170   32.6700 C.3       1 SUB1        0.000
     22 C           2.9980   16.2560   33.3700 C.2       1 SUB1        0.000
     23 O           2.3670   15.2410   33.1030 O.2       1 SUB1        0.000
     24 CB          4.3300   16.3670   31.0750 C.3       1 SUB1        0.000
     25 CG1         3.0980   16.9810   30.4060 C.3       1 SUB1        0.000
     26 CG2         5.5790   16.9930   30.4220 C.3       1 SUB1        0.000
     27 H           5.3750   14.9710   33.4070 H         1 SUB1        0.000
     28 N           2.5100   17.1660   34.1940 N.am      1 SUB1        0.000
     29 CA          1.3020   16.9140   34.9570 C.3       1 SUB1        0.000
     30 C          -0.0030   17.4050   34.3440 C.2       1 SUB1        0.000
     31 O          -0.8950   17.8800   35.0450 O.2       1 SUB1        0.000
     32 CB          1.4900   17.4170   36.4090 C.3       1 SUB1        0.000
     33 CG          2.8590   17.0690   37.0590 C.3       1 SUB1        0.000
     34 CD1         3.0070   17.6220   38.4760 C.3       1 SUB1        0.000
     35 CD2         3.0600   15.5650   37.0710 C.3       1 SUB1        0.000
     36 H           2.9900   18.0140   34.3260 H         1 SUB1        0.000
     37 N          -0.1410   17.1960   33.0470 N.am      1 SUB1        0.000
     38 CA         -1.3440   17.5610   32.2900 C.3       1 SUB1        0.000
     39 C          -2.4520   16.5880   32.7810 C.2       1 SUB1        0.000
     40 O          -2.2050   15.3880   32.9240 O.2       1 SUB1        0.000
     41 CB         -0.9770   17.4800   30.7780 C.3       1 SUB1        0.000
     42 CG         -2.1030   17.1740   29.8710 C.ar      1 SUB1        0.000
     43 CD1        -2.5970   15.8810   29.7660 C.ar      1 SUB1        0.000
     44 CD2        -2.7080   18.1840   29.1300 C.ar      1 SUB1        0.000
     45 CE1        -3.7030   15.5880   28.9350 C.ar      1 SUB1        0.000
     46 CE2        -3.8230   17.9050   28.2830 C.ar      1 SUB1        0.000
     47 CZ         -4.3160   16.6040   28.1940 C.ar      1 SUB1        0.000
     48 H           0.5910   16.7580   32.5720 H         1 SUB1        0.000
     49 N          -3.6150   17.1340   33.1380 N.am      1 SUB1        0.000
     50 CA         -4.7260   16.3560   33.6930 C.3       1 SUB1        0.000
     51 C          -6.1110   16.6730   33.1200 C.2       1 SUB1        0.000
     52 O          -6.5340   17.8280   33.0350 O.2       1 SUB1        0.000
     53 CB         -4.7490   16.5280   35.2380 C.3       1 SUB1        0.000
     54 CG         -5.7820   15.7320   36.0120 C.3       1 SUB1        0.000
     55 CD         -7.1330   16.4530   36.1330 C.2       1 SUB1        0.000
     56 OE1        -7.1410   17.6570   36.4500 O.co2     1 SUB1       -0.500
     57 OE2        -8.2040   15.8290   35.9100 O.co2     1 SUB1       -0.500
     58 H          -3.7680   18.0940   33.0000 H         1 SUB1        0.000
     59 N          -6.8780   15.6240   32.8750 N.am      1 SUB1        0.000
     60 CA         -8.2070   15.7870   32.3260 C.3       1 SUB1        0.000
     61 C          -9.2930   14.8000   32.8230 C.2       1 SUB1        0.000
     62 O          -9.0260   13.6350   33.1250 O.2       1 SUB1        0.000
     63 CB         -8.1140   15.7090   30.8140 C.3       1 SUB1        0.000
     64 H          -6.5530   14.7150   33.0600 H         1 SUB1        0.000
     65 N         -10.5260   15.2950   32.8400 N.am      1 SUB1        0.000
     66 CA        -11.7100   14.5220   33.1910 C.3       1 SUB1        0.000
     67 C         -11.7480   13.3340   32.2150 C.2       1 SUB1        0.000
     68 O         -11.8750   12.1520   32.6500 O.2       1 SUB1        0.000
     69 CB        -12.9640   15.4120   32.9920 C.3       1 SUB1        0.000
     70 CG        -14.3140   14.6970   32.6330 C.3       1 SUB1        0.000
     71 CD        -14.5790   14.5300   31.0850 C.3       1 SUB1        0.000
     72 CE        -15.6820   13.5240   30.8280 C.3       1 SUB1        0.000
     73 HN1       -10.6530   16.2140   32.5480 H         1 SUB1        0.000
     74 N         -11.6130   13.6100   30.9970 N.am      1 SUB1        0.000
     75 HA          7.4980   14.6475   34.0790 H         1 SUB1        0.000
     76 HB2         8.0722   16.9661   35.9656 H         1 SUB1        0.000
     77 HB1         8.8455   15.3480   36.0661 H         1 SUB1        0.000
     78 HG2         5.8448   15.3980   36.1213 H         1 SUB1        0.000
     79 HG1         6.6828   16.1080   37.5426 H         1 SUB1        0.000
     80 HD2         7.6580   13.4039   36.6929 H         1 SUB1        0.000
     81 HD1         5.9701   13.4595   37.3049 H         1 SUB1        0.000
     82 HA          4.4799   17.6969   32.8202 H         1 SUB1        0.000
     83 HB          4.3322   15.2821   30.8937 H         1 SUB1        0.000
     84 HG13        2.1885   16.5222   30.8210 H         1 SUB1        0.000
     85 HG12        3.1395   16.7974   29.3222 H         1 SUB1        0.000
     86 HG11        3.0805   18.0647   30.5939 H         1 SUB1        0.000
     87 HG23        5.5826   18.0780   30.6032 H         1 SUB1        0.000
     88 HG22        5.5611   16.8023   29.3388 H         1 SUB1        0.000
     89 HG21        6.4842   16.5453   30.8582 H         1 SUB1        0.000
     90 HA          1.2045   15.8197   35.0117 H         1 SUB1        0.000
     91 HB2         0.6968   16.9728   37.0283 H         1 SUB1        0.000
     92 HB1         1.3832   18.5118   36.4063 H         1 SUB1        0.000
     93 HG          3.6482   17.5194   36.4390 H         1 SUB1        0.000
     94 HD13        2.9282   18.7189   38.4516 H         1 SUB1        0.000
     95 HD12        3.9881   17.3339   38.8815 H         1 SUB1        0.000
     96 HD11        2.2113   17.2113   39.1149 H         1 SUB1        0.000
     97 HD23        2.2592   15.0928   37.6590 H         1 SUB1        0.000
     98 HD22        4.0347   15.3289   37.5229 H         1 SUB1        0.000
     99 HD21        3.0318   15.1830   36.0398 H         1 SUB1        0.000
    100 HA         -1.6499   18.5923   32.5200 H         1 SUB1        0.000
    101 HB2        -0.2175   16.6940   30.6541 H         1 SUB1        0.000
    102 HB1        -0.5531   18.4499   30.4786 H         1 SUB1        0.000
    103 HD1        -2.1275   15.0832   30.3300 H         1 SUB1        0.000
    104 HD2        -2.3276   19.1969   29.1966 H         1 SUB1        0.000
    105 HE1        -4.0772   14.5726   28.8719 H         1 SUB1        0.000
    106 HE2        -4.2846   18.7019   27.7112 H         1 SUB1        0.000
    107 HZ         -5.1650   16.3821   27.5576 H         1 SUB1        0.000
    108 HA         -4.5214   15.2989   33.4681 H         1 SUB1        0.000
    109 HB2        -4.9266   17.5928   35.4492 H         1 SUB1        0.000
    110 HB1        -3.7576   16.2394   35.6172 H         1 SUB1        0.000
    111 HG2        -5.3934   15.5450   37.0239 H         1 SUB1        0.000
    112 HG1        -5.9420   14.7729   35.4977 H         1 SUB1        0.000
    113 HA         -8.5457   16.7965   32.6019 H         1 SUB1        0.000
    114 HB3        -7.7037   14.7311   30.5219 H         1 SUB1        0.000
    115 HB2        -7.4543   16.5083   30.4455 H         1 SUB1        0.000
    116 HB1        -9.1166   15.8310   30.3782 H         1 SUB1        0.000
    117 H4        -11.6559   14.1693   34.2315 H         1 SUB1        0.000
    118 H5        -12.7401   16.1189   32.1795 H         1 SUB1        0.000
    119 H6        -13.1248   15.9677   33.9276 H         1 SUB1        0.000
    120 H7        -15.1385   15.2864   33.0604 H         1 SUB1        0.000
    121 H8        -14.3039   13.6961   33.0891 H         1 SUB1        0.000
    122 H9        -13.6558   14.1838   30.5974 H         1 SUB1        0.000
    123 H10       -14.8738   15.5024   30.6636 H         1 SUB1        0.000
    124 H11       -15.8452   13.4277   29.7444 H         1 SUB1        0.000
    125 H12       -16.6099   13.8662   31.3095 H         1 SUB1        0.000
    126 H13       -15.3918   12.5476   31.2433 H         1 SUB1        0.000
    127 H14       -11.6291   12.8797   30.3141 H         1 SUB1        0.000
    128 H15       -11.4894   14.5600   30.7103 H         1 SUB1        0.000
@<TRIPOS>BOND
     1    2    3 1  
     2    2    5 1  
     3    2    1 1  
     4    1   14 1  
     5    1   13 1  
     6    1   12 1  
     7    5    6 1  
     8    6    7 1  
     9    7    8 1  
    10    8   15 1  
    11    8    9 ar 
    12    9   10 ar 
    13    9   11 ar 
    14   11   19 1  
    15   11   18 1  
    16   10   17 1  
    17   10   16 1  
    18    3    4 2  
    19   21   22 1  
    20   21   24 1  
    21   21   20 1  
    22   20   27 1  
    23   24   25 1  
    24   24   26 1  
    25   22   23 2  
    26   29   30 1  
    27   29   32 1  
    28   29   28 1  
    29   28   36 1  
    30   32   33 1  
    31   33   35 1  
    32   33   34 1  
    33   30   31 2  
    34   38   39 1  
    35   38   41 1  
    36   38   37 1  
    37   37   48 1  
    38   41   42 1  
    39   42   44 ar 
    40   42   43 ar 
    41   43   45 ar 
    42   45   47 ar 
    43   47   46 ar 
    44   46   44 ar 
    45   39   40 2  
    46   50   51 1  
    47   50   53 1  
    48   50   49 1  
    49   49   58 1  
    50   53   54 1  
    51   54   55 1  
    52   55   56 ar 
    53   55   57 ar 
    54   51   52 2  
    55   60   61 1  
    56   60   63 1  
    57   60   59 1  
    58   59   64 1  
    59   61   62 2  
    60   65   73 1  
    61   65   66 1  
    62   66   69 1  
    63   66   67 1  
    64   67   68 2  
    65   69   70 1  
    66   70   71 1  
    67   71   72 1  
    68    3   20 am 
    69   22   28 am 
    70   30   37 am 
    71   39   49 am 
    72   51   59 am 
    73   61   65 am 
    74   67   74 am 
    75    2   75 1  
    76    5   76 1  
    77    5   77 1  
    78    6   78 1  
    79    6   79 1  
    80    7   80 1  
    81    7   81 1  
    82   21   82 1  
    83   24   83 1  
    84   25   84 1  
    85   25   85 1  
    86   25   86 1  
    87   26   87 1  
    88   26   88 1  
    89   26   89 1  
    90   29   90 1  
    91   32   91 1  
    92   32   92 1  
    93   33   93 1  
    94   34   94 1  
    95   34   95 1  
    96   34   96 1  
    97   35   97 1  
    98   35   98 1  
    99   35   99 1  
   100   38  100 1  
   101   41  101 1  
   102   41  102 1  
   103   43  103 1  
   104   44  104 1  
   105   45  105 1  
   106   46  106 1  
   107   47  107 1  
   108   50  108 1  
   109   53  109 1  
   110   53  110 1  
   111   54  111 1  
   112   54  112 1  
   113   60  113 1  
   114   63  114 1  
   115   63  115 1  
   116   63  116 1  
   117   66  117 1  
   118   69  118 1  
   119   69  119 1  
   120   70  120 1  
   121   70  121 1  
   122   71  122 1  
   123   71  123 1  
   124   72  124 1  
   125   72  125 1  
   126   72  126 1  
   127   74  127 1  
   128   74  128 1  
@<TRIPOS>SUBSTRUCTURE
     1 SUB1        1 GROUP

