#	Name:			1bb0_ligand
#	Creating user name:	arthur
#	Creation time:		Mon Feb 25 23:49:27 2002

#	Modifying user name:	arthur
#	Modification time:	Mon Feb 25 23:49:58 2002

@<TRIPOS>MOLECULE
1bb0_ligand
   72    74     1     0     0
SMALL
USER_CHARGES
INVALID_CHARGES

@<TRIPOS>ATOM
      1 H1         18.6614  -17.9376   26.7956 H         1 SUB1        0.0000 
      2 H2         17.7090  -16.4256   26.6126 H         1 SUB1        0.0000 
      3 H3         18.7220  -14.4590   26.6070 H         1 SUB1        0.0000 
      4 H4         20.7475  -13.0678   26.2310 H         1 SUB1        0.0000 
      5 H5         22.7242  -13.9939   25.0855 H         1 SUB1        0.0000 
      6 H6         22.7819  -16.4346   24.5653 H         1 SUB1        0.0000 
      7 H7         21.0075  -17.8983   25.4857 H         1 SUB1        0.0000 
      8 H8         16.5479  -16.0583   23.5327 H         1 SUB1        0.0000 
      9 H9         19.2796  -15.4736   23.5558 H         1 SUB1        0.0000 
     10 H10        18.3971  -16.8701   21.0594 H         1 SUB1        0.0000 
     11 H11        19.7030  -17.3377   22.2006 H         1 SUB1        0.0000 
     12 H12        20.3068  -16.1495   20.0087 H         1 SUB1        0.0000 
     13 H13        21.0840  -15.6354   21.5444 H         1 SUB1        0.0000 
     14 H14        20.6562  -13.5900   20.8778 H         1 SUB1        0.0000 
     15 H15        19.4999  -14.1445   19.6199 H         1 SUB1        0.0000 
     16 H16        17.9087  -11.9272   22.4089 H         1 SUB1        0.0000 
     17 S          17.8250  -17.6630   24.6010 S.o2      1 SUB1        0.0000 
     18 O1S        16.5590  -18.1930   24.9700 O.2       1 SUB1        0.0000 
     19 O2S        18.7900  -18.3260   23.7910 O.2       1 SUB1        0.0000 
     20 C          18.4750  -17.0660   26.1510 C.3       1 SUB1        0.0000 
     21 C1         19.7430  -16.2770   26.0710 C.ar      1 SUB1        0.0000 
     22 C2         19.6430  -14.9080   26.2530 C.ar      1 SUB1        0.0000 
     23 C3         20.7650  -14.1190   25.9670 C.ar      1 SUB1        0.0000 
     24 C4         21.8960  -14.6380   25.3580 C.ar      1 SUB1        0.0000 
     25 C5         21.9440  -16.0070   25.1040 C.ar      1 SUB1        0.0000 
     26 C6         20.9050  -16.8210   25.5490 C.ar      1 SUB1        0.0000 
     27 N          17.4920  -16.3810   23.6000 N.am      1 SUB1        1.0000 
     28 CA         18.4820  -15.7300   22.8430 C.3       1 SUB1        0.0000 
     29 CB         19.1620  -16.4910   21.7530 C.3       1 SUB1        0.0000 
     30 CG         20.1430  -15.6500   20.9750 C.3       1 SUB1        0.0000 
     31 C          17.9000  -14.3990   22.3120 C.2       1 SUB1        0.0000 
     32 CD         19.7760  -14.2200   20.6820 C.3       1 SUB1        0.0000 
     33 O          16.9460  -13.9800   22.9600 O.2       1 SUB1        0.0000 
     34 N          18.6560  -13.7130   21.4880 N.am      1 SUB1        0.0000 
     35 CA         18.1290  -12.3510   21.4180 C.3       1 SUB1        0.0000 
     36 C          16.8320  -12.7310   20.6150 C.2       1 SUB1        0.0000 
     37 O          16.7940  -13.6380   19.7430 O.2       1 SUB1        0.0000 
     38 C2         11.6690  -13.8310   21.5510 C.3       1 SUB1        0.0000 
     39 C3         12.2190  -13.8810   23.1160 C.3       1 SUB1        0.0000 
     40 N          15.8250  -11.7010   20.5730 N.am      1 SUB1        0.0000 
     41 CA         14.6260  -11.6790   19.8100 C.3       1 SUB1        0.0000 
     42 C          14.7720  -11.1810   18.4660 C.3       1 SUB1        0.0000 
     43 O          13.9280  -10.6470   17.5260 O.3       1 SUB1        0.0000 
     44 CB         13.6810  -10.9870   20.6100 C.3       1 SUB1        0.0000 
     45 CZ         11.2960  -11.9580   24.5990 C.cat     1 SUB1        0.0000 
     46 NE         12.2760  -12.3890   23.7370 N.pl3     1 SUB1        0.0000 
     47 C1         12.9020  -13.0670   20.6870 C.3       1 SUB1        0.0000 
     48 CG         12.6450  -11.6780   21.3270 C.3       1 SUB1        0.0000 
     49 CD         13.0430  -11.6160   22.8430 C.3       1 SUB1        0.0000 
     50 NH1        11.0470  -10.6820   24.7320 N.pl3     1 SUB1        0.5000 
     51 NH2        10.5620  -12.7380   25.2420 N.pl3     1 SUB1        0.5000 
     52 H17        18.7884  -11.6662   20.8646 H         1 SUB1        0.0000 
     53 H18        11.4989  -14.8477   21.1671 H         1 SUB1        0.0000 
     54 H19        10.7350  -13.2536   21.4865 H         1 SUB1        0.0000 
     55 H20        13.2274  -14.3200   23.1327 H         1 SUB1        0.0000 
     56 H21        11.5395  -14.5001   23.7202 H         1 SUB1        0.0000 
     57 H22        15.9902  -10.9029   21.1524 H         1 SUB1        0.0000 
     58 H23        14.2773  -12.7172   19.7076 H         1 SUB1        0.0000 
     59 H24        15.2098  -12.0401   17.9367 H         1 SUB1        0.0000 
     60 H25        15.5327  -10.3949   18.5814 H         1 SUB1        0.0000 
     61 H26        14.4206  -10.4363   16.7415 H         1 SUB1        0.0000 
     62 H27        13.1728  -10.2759   19.9421 H         1 SUB1        0.0000 
     63 H28        14.2607  -10.4328   21.3629 H         1 SUB1        0.0000 
     64 H29        12.7390  -13.0786   19.5992 H         1 SUB1        0.0000 
     65 H30        13.9009  -13.4687   20.9124 H         1 SUB1        0.0000 
     66 H31        11.6268  -11.2971   21.1591 H         1 SUB1        0.0000 
     67 H32        14.0874  -11.9511   22.9260 H         1 SUB1        0.0000 
     68 H33        12.9682  -10.5663   23.1632 H         1 SUB1        0.0000 
     69 H34        10.3113  -10.3656   25.3797 H         1 SUB1        0.0000 
     70 H35        11.5865   -9.9927   24.1891 H         1 SUB1        0.0000 
     71 H36        10.7099  -13.7553   25.1773 H         1 SUB1        0.0000 
     72 H37         9.8089  -12.3638   25.8368 H         1 SUB1        0.0000 
@<TRIPOS>BOND
     1   40   41 1    
     2   41   44 1    
     3   41   42 1    
     4   42   43 1    
     5   34   32 1    
     6   20    1 1    
     7   20    2 1    
     8   22    3 1    
     9   23    4 1    
    10   24    5 1    
    11   25    6 1    
    12   26    7 1    
    13   27    8 1    
    14   28    9 1    
    15   29   10 1    
    16   29   11 1    
    17   30   12 1    
    18   30   13 1    
    19   32   14 1    
    20   32   15 1    
    21   17   20 1    
    22   17   19 2    
    23   17   18 2    
    24   20   21 1    
    25   21   26 ar   
    26   21   22 ar   
    27   22   23 ar   
    28   23   24 ar   
    29   25   24 ar   
    30   26   25 ar   
    31   28   27 1    
    32   31   28 1    
    33   28   29 1    
    34   30   29 1    
    35   32   30 1    
    36   31   33 2    
    37   36   35 1    
    38   35   34 1    
    39   36   37 2    
    40   47   38 1    
    41   38   39 1    
    42   46   39 1    
    43   46   45 ar   
    44   49   46 1    
    45   48   49 1    
    46   48   47 1    
    47   45   50 ar   
    48   45   51 ar   
    49   27   17 1    
    50   34   31 am   
    51   44   48 1    
    52   40   36 am   
    53   35   16 1    
    54   35   52 1    
    55   38   53 1    
    56   38   54 1    
    57   39   55 1    
    58   39   56 1    
    59   40   57 1    
    60   41   58 1    
    61   42   59 1    
    62   42   60 1    
    63   43   61 1    
    64   44   62 1    
    65   44   63 1    
    66   47   64 1    
    67   47   65 1    
    68   48   66 1    
    69   49   67 1    
    70   49   68 1    
    71   50   69 1    
    72   50   70 1    
    73   51   71 1    
    74   51   72 1    
@<TRIPOS>SUBSTRUCTURE
     1 SUB1        1 GROUP             0 ****  ****    0 ROOT 
