### Name: 1bxq_ligand
### Creating user name: arthur
### Creation time: Tue Nov 27 11:30:17 2001


@<TRIPOS>MOLECULE
1bxq_ligand
   89    89     1     0     0
SMALL
USER_CHARGES


@<TRIPOS>ATOM
      1 H1         17.4665    5.9941   17.8149 H         1 SUB1        0.000
      2 H2         16.0810    3.1205   16.9383 H         1 SUB1        0.000
      3 H3         15.8087    4.8960   16.9333 H         1 SUB1        0.000
      4 H4         19.2336    4.8687   19.8687 H         1 SUB1        0.000
      5 H5         14.6670    2.8469   18.9045 H         1 SUB1        0.000
      6 H6         21.1662    5.7168   18.8298 H         1 SUB1        0.000
      7 H7         13.5453    4.7883   19.9568 H         1 SUB1        0.000
      8 H8         14.4198    5.9004   18.8499 H         1 SUB1        0.000
      9 H9         15.3313    4.9446   20.0674 H         1 SUB1        0.000
     10 H10        21.4009    4.2126   16.8876 H         1 SUB1        0.000
     11 H11        19.6256    3.9401   16.9104 H         1 SUB1        0.000
     12 H12        20.6309    3.4283   18.3083 H         1 SUB1        0.000
     13 H13        12.5066    3.6955   17.9614 H         1 SUB1        0.000
     14 H14        13.5547    3.0221   16.6673 H         1 SUB1        0.000
     15 H15        13.4171    4.8008   16.8770 H         1 SUB1        0.000
     16 H16        20.2163    7.6230   17.5977 H         1 SUB1        0.000
     17 H17        19.5716    6.4789   16.3721 H         1 SUB1        0.000
     18 H18        21.3446    6.6221   16.6222 H         1 SUB1        0.000
     19 H19        20.5554    6.5572   20.8404 H         1 SUB1        0.000
     20 H20        19.3611    9.2303   20.9395 H         1 SUB1        0.000
     21 H21        19.3259    7.4080   23.3094 H         1 SUB1        0.000
     22 H22        17.9330    8.1134   22.4214 H         1 SUB1        0.000
     23 H23        19.0185   11.4244   24.1496 H         1 SUB1        0.000
     24 H24        19.1571   11.0225   22.4705 H         1 SUB1        0.000
     25 H25        21.2829    9.7542   20.0248 H         1 SUB1        0.000
     26 H26        23.7378    9.4652   21.6072 H         1 SUB1        0.000
     27 H27        25.0637    9.5202   19.6960 H         1 SUB1        0.000
     28 H28        23.6896   10.0154   18.6503 H         1 SUB1        0.000
     29 H29        22.6336    7.8294   19.0411 H         1 SUB1        0.000
     30 H30        24.1824    6.4750   17.6779 H         1 SUB1        0.000
     31 H31        25.4879    7.6701   17.9844 H         1 SUB1        0.000
     32 H32        24.0273    8.1535   17.0572 H         1 SUB1        0.000
     33 H33        23.6721    7.3089   21.2383 H         1 SUB1        0.000
     34 H34        25.2553    7.0791   20.4214 H         1 SUB1        0.000
     35 H35        23.8848    5.9788   20.0500 H         1 SUB1        0.000
     36 H36        24.2846   13.4753   22.5151 H         1 SUB1        0.000
     37 H37        21.9219   14.3411   22.9131 H         1 SUB1        0.000
     38 H38        23.1563   14.8590   24.1109 H         1 SUB1        0.000
     39 H39        25.7295   13.7534   26.9433 H         1 SUB1        0.000
     40 H40        26.3812   12.3206   26.0779 H         1 SUB1        0.000
     41 H41        24.8394   12.1940   26.9909 H         1 SUB1        0.000
     42 H42        21.7350   15.4664   25.8862 H         1 SUB1        0.000
     43 H43        21.3836   11.6248   24.1036 H         1 SUB1        0.000
     44 H44        20.2310   14.7380   27.7327 H         1 SUB1        0.000
     45 H45        19.3671   12.4504   27.6961 H         1 SUB1        0.000
     46 H46        19.8787   10.8146   25.8989 H         1 SUB1        0.000
     47 NV2        17.8320    5.2860   18.4190 N.am      1 SUB1        0.000
     48 CV1        15.9120    4.0050   17.5700 C.3       1 SUB1        0.000
     49 CV6        19.0790    5.6070   19.0680 C.3       1 SUB1        0.000
     50 CV2        14.6320    3.8110   18.3760 C.3       1 SUB1        0.000
     51 CV7        20.3030    5.5530   18.1680 C.3       1 SUB1        0.000
     52 CV3        14.4710    4.9390   19.3820 C.3       1 SUB1        0.000
     53 CV8        20.5040    4.1890   17.5240 C.3       1 SUB1        0.000
     54 CV4        13.4430    3.8340   17.4010 C.3       1 SUB1        0.000
     55 CV9        20.3630    6.6440   17.1180 C.3       1 SUB1        0.000
     56 CV5        17.1080    4.1910   18.5110 C.2       1 SUB1        0.000
     57 CR         18.9500    7.0010   19.7110 C.2       1 SUB1        0.000
     58 OV1        17.4690    3.3090   19.2930 O.2       1 SUB1        0.000
     59 OV2        18.0990    7.8140   19.3640 O.2       1 SUB1        0.000
     60 N1         19.8370    7.2350   20.6840 N.am      1 SUB1        0.000
     61 C1         19.8160    8.4200   21.5280 C.3       1 SUB1        0.000
     62 C2         18.9670    8.2870   22.7540 C.3       1 SUB1        0.000
     63 C4         18.9430    9.4570   23.7210 C.2       1 SUB1        0.000
     64 O2         18.8230    9.1030   24.9170 O.2       1 SUB1        0.000
     65 N2         19.0480   10.7380   23.4230 N.am      1 SUB1        0.000
     66 C3         21.2630    8.8130   21.7810 C.2       1 SUB1        0.000
     67 O1         21.8280    8.4580   22.8110 O.2       1 SUB1        0.000
     68 NL         21.8590    9.5010   20.8020 N.am      1 SUB1        0.000
     69 CAL        23.2410    9.9210   20.7380 C.3       1 SUB1        0.000
     70 CBL        23.9850    9.4030   19.5150 C.3       1 SUB1        0.000
     71 CGL        23.7190    7.9470   19.1750 C.3       1 SUB1        0.000
     72 CL1        24.4010    7.5330   17.8850 C.3       1 SUB1        0.000
     73 CL2        24.1640    7.0130   20.3000 C.3       1 SUB1        0.000
     74 P          23.4010   11.6970   20.9410 P.3       1 SUB1        0.000
     75 O3         22.4630   12.3340   19.9930 O.co2     1 SUB1       -0.500
     76 O4         24.8440   12.0810   20.8150 O.co2     1 SUB1       -0.500
     77 O5         22.9220   12.0060   22.3990 O.3       1 SUB1        0.000
     78 C5         23.5630   12.9600   23.1660 C.3       1 SUB1        0.000
     79 C6         22.5630   14.0090   23.7430 C.3       1 SUB1        0.000
     80 C7         25.4640   12.8530   26.3700 C.3       1 SUB1        0.000
     81 CE2        21.6500   13.5740   24.8720 C.ar      1 SUB1        0.000
     82 CZ         21.3300   14.4610   25.8960 C.ar      1 SUB1        0.000
     83 CD2        21.1210   12.3000   24.9100 C.ar      1 SUB1        0.000
     84 CE1        20.4960   14.0630   26.9270 C.ar      1 SUB1        0.000
     85 CD1        20.0140   12.7620   26.8840 C.ar      1 SUB1        0.000
     86 CG         20.2840   11.8200   25.8950 C.ar      1 SUB1        0.000
     87 CT         24.3240   12.3790   24.3790 C.2       1 SUB1        0.000
     88 OT1        24.7470   13.2270   25.2110 O.3       1 SUB1        0.000
     89 OT2        24.4260   11.1470   24.5140 O.2       1 SUB1        0.000
@<TRIPOS>BOND
     1   47    1 1  
     2   48    2 1  
     3   48    3 1  
     4   49    4 1  
     5   50    5 1  
     6   51    6 1  
     7   52    7 1  
     8   52    8 1  
     9   52    9 1  
    10   53   10 1  
    11   53   11 1  
    12   53   12 1  
    13   54   13 1  
    14   54   14 1  
    15   54   15 1  
    16   55   16 1  
    17   55   17 1  
    18   55   18 1  
    19   60   19 1  
    20   61   20 1  
    21   62   21 1  
    22   62   22 1  
    23   65   23 1  
    24   65   24 1  
    25   68   25 1  
    26   69   26 1  
    27   70   27 1  
    28   70   28 1  
    29   71   29 1  
    30   72   30 1  
    31   72   31 1  
    32   72   32 1  
    33   73   33 1  
    34   73   34 1  
    35   73   35 1  
    36   78   36 1  
    37   79   37 1  
    38   79   38 1  
    39   80   39 1  
    40   80   40 1  
    41   80   41 1  
    42   82   42 1  
    43   83   43 1  
    44   84   44 1  
    45   85   45 1  
    46   86   46 1  
    47   47   49 1  
    48   47   56 am 
    49   49   51 1  
    50   49   57 1  
    51   51   53 1  
    52   51   55 1  
    53   56   58 2  
    54   57   59 2  
    55   57   60 am 
    56   60   61 1  
    57   61   62 1  
    58   61   66 1  
    59   62   63 1  
    60   63   64 2  
    61   63   65 am 
    62   66   67 2  
    63   66   68 am 
    64   68   69 1  
    65   69   70 1  
    66   69   74 1  
    67   70   71 1  
    68   71   72 1  
    69   71   73 1  
    70   74   75 ar 
    71   74   76 ar 
    72   74   77 1  
    73   77   78 1  
    74   78   79 1  
    75   78   87 1  
    76   79   81 1  
    77   81   82 ar 
    78   81   83 ar 
    79   82   84 ar 
    80   83   86 ar 
    81   84   85 ar 
    82   85   86 ar 
    83   87   88 1  
    84   87   89 2  
    85   88   80 1  
    86   56   48 1  
    87   50   54 1  
    88   50   52 1  
    89   48   50 1  
@<TRIPOS>SUBSTRUCTURE
     1 SUB1        1 GROUP

