#	Name:			1bzm_ligand
#	Creating user name:	arthur
#	Creation time:		Mon Nov  4 20:23:18 2002

#	Modifying user name:	arthur
#	Modification time:	Mon Nov  4 20:23:55 2002

@<TRIPOS>MOLECULE
1bzm_ligand
   22    22     1     0     0
SMALL
MMFF94_CHARGES


@<TRIPOS>ATOM
      1 H1         37.1338   17.1769  -15.9372 H         1 SUB1        0.1500 
      2 H3         35.7121   19.5527  -20.7206 H         1 SUB1        0.0000 
      3 H4         34.3896   18.8528  -21.7144 H         1 SUB1        0.0000 
      4 H5         36.0310   18.1246  -21.7624 H         1 SUB1        0.0000 
      5 H6         33.4235   16.6677  -21.8164 H         1 SUB1        0.4500 
      6 H7         31.3772   13.9285  -22.1594 H         1 SUB1        0.0000 
      7 H8         32.5590   14.8041  -23.1906 H         1 SUB1        0.0000 
      8 H9         31.2271   15.7038  -22.3885 H         1 SUB1        0.0000 
      9 N1         36.3600   17.8050  -15.7860 N.2       1 SUB1       -0.6901 
     10 S1         34.9080   17.3530  -16.1370 S.o2      1 SUB1        0.9021 
     11 O1         34.6790   16.0280  -15.6410 O.2       1 SUB1       -0.6500 
     12 O2         34.0480   18.4260  -15.8230 O.2       1 SUB1       -0.6500 
     13 C1         34.8760   17.1320  -17.9080 C.2       1 SUB1        0.3161 
     14 S2         34.2110   15.7370  -18.6070 S.3       1 SUB1       -0.1330 
     15 C2         34.3950   16.5430  -20.0990 C.2       1 SUB1        0.8250 
     16 N2         34.9250   17.7320  -20.0140 N.2       1 SUB1       -0.4610 
     17 C5         35.2870   18.6210  -21.1220 C.3       1 SUB1        0.5140 
     18 N3         35.1730   18.1010  -18.7010 N.2       1 SUB1       -0.2911 
     19 N4         33.5060   16.0660  -21.0220 N.am      1 SUB1       -0.6630 
     20 C3         32.7970   15.0930  -21.1080 C.2       1 SUB1        0.8900 
     21 O3         32.7640   14.2200  -20.2590 O.2       1 SUB1       -0.5700 
     22 C4         31.9350   14.8680  -22.2870 C.3       1 SUB1        0.0610 
@<TRIPOS>BOND
     1    9    1 1    
     2   17    2 1    
     3   17    3 1    
     4   17    4 1    
     5   19    5 1    
     6   22    6 1    
     7   22    7 1    
     8   22    8 1    
     9   10    9 1    
    10   10   11 2    
    11   10   12 2    
    12   13   10 1    
    13   14   13 1    
    14   18   13 2    
    15   15   14 1    
    16   15   16 2    
    17   19   15 am   
    18   16   17 1    
    19   16   18 1    
    20   20   19 am   
    21   20   21 2    
    22   20   22 1    
@<TRIPOS>SUBSTRUCTURE
     1 SUB1        1 GROUP             0 ****  ****    0 ROOT 
