### Name: 1cla_ligand
### Creating user name: arthur
### Creation time: Tue Nov 27 11:30:18 2001


@<TRIPOS>MOLECULE
1cla_ligand
   32    32     1     0     0
SMALL
USER_CHARGES


@<TRIPOS>ATOM
      1 H1          1.6952   17.2829   15.0671 H         1 SUB1        0.000
      2 H2          0.5143   16.1639   16.3777 H         1 SUB1        0.000
      3 H3         -1.6741   14.4087   15.4255 H         1 SUB1        0.000
      4 H4         -2.3279   16.1315   16.9204 H         1 SUB1        0.000
      5 H5         -1.1316   15.5702   18.1372 H         1 SUB1        0.000
      6 H6         -3.2486   14.8522   18.5615 H         1 SUB1        0.000
      7 H7         -0.9534   12.5773   16.8127 H         1 SUB1        0.000
      8 H8          1.0738   12.9449   17.9293 H         1 SUB1        0.000
      9 H9         -1.0871   11.8757   14.4489 H         1 SUB1        0.000
     10 H10         0.2099   11.0072   12.5868 H         1 SUB1        0.000
     11 H11         3.6828   13.0689   14.0290 H         1 SUB1        0.000
     12 H12         2.3685   13.9045   15.9438 H         1 SUB1        0.000
     13 C1          1.0430   17.1520   14.1910 C.3       1 SUB1        0.000
     14 CL1A        1.9980   16.7630   12.8310 Cl        1 SUB1        0.000
     15 CL1B        0.0930   18.6140   13.9140 Cl        1 SUB1        0.000
     16 C2          0.0050   16.0320   14.4510 C.2       1 SUB1        0.000
     17 O2         -0.6570   15.5130   13.5680 O.2       1 SUB1        0.000
     18 N2         -0.0760   15.6890   15.7250 N.am      1 SUB1        0.000
     19 C3         -0.9750   14.6590   16.2370 C.3       1 SUB1        0.000
     20 C4         -1.8070   15.2530   17.3290 C.3       1 SUB1        0.000
     21 O4         -2.7700   14.3950   17.8800 O.3       1 SUB1        0.000
     22 C5         -0.2460   13.3760   16.5450 C.3       1 SUB1        0.000
     23 O5          0.5730   13.7080   17.6660 O.3       1 SUB1        0.000
     24 C6          0.5640   12.9390   15.3330 C.ar      1 SUB1        0.000
     25 C7         -0.0360   12.1260   14.3620 C.ar      1 SUB1        0.000
     26 C8          0.6760   11.6520   13.3230 C.ar      1 SUB1        0.000
     27 C9          1.9710   11.9880   13.2100 C.ar      1 SUB1        0.000
     28 N9          2.8000   11.5050   12.0930 N.2       1 SUB1        0.000
     29 O9A         3.8810   12.0060   11.8810 O.2       1 SUB1        0.000
     30 O9B         2.3000   10.5850   11.4300 O.2       1 SUB1        0.000
     31 C10         2.6360   12.8120   14.1440 C.ar      1 SUB1        0.000
     32 C11         1.8990   13.2710   15.2000 C.ar      1 SUB1        0.000
@<TRIPOS>BOND
     1   13    1 1  
     2   18    2 1  
     3   19    3 1  
     4   20    4 1  
     5   20    5 1  
     6   21    6 1  
     7   22    7 1  
     8   23    8 1  
     9   25    9 1  
    10   26   10 1  
    11   31   11 1  
    12   32   12 1  
    13   13   14 1  
    14   13   15 1  
    15   13   16 1  
    16   16   17 2  
    17   16   18 am 
    18   18   19 1  
    19   19   20 1  
    20   19   22 1  
    21   20   21 1  
    22   22   23 1  
    23   22   24 1  
    24   24   25 ar 
    25   24   32 ar 
    26   25   26 ar 
    27   26   27 ar 
    28   27   28 1  
    29   27   31 ar 
    30   28   29 2  
    31   28   30 2  
    32   31   32 ar 
@<TRIPOS>SUBSTRUCTURE
     1 SUB1        1 GROUP

