### Name: 1d3q_ligand
### Creating user name: arthur
### Creation time: Tue Nov 27 11:30:28 2001


@<TRIPOS>MOLECULE
1d3q_ligand
   76    81     1     0     0
SMALL
USER_CHARGES


@<TRIPOS>ATOM
      1 C1        -24.4230  -31.4070   24.2210 C.ar      1 SUB1        0.000
      2 C2        -24.6650  -32.4170   23.0810 C.ar      1 SUB1        0.000
      3 C3        -23.6790  -32.6080   21.9900 C.ar      1 SUB1        0.000
      4 C4        -22.4190  -31.8410   21.9370 C.ar      1 SUB1        0.000
      5 C5        -22.1770  -30.8350   22.9600 C.ar      1 SUB1        0.000
      6 C6        -23.1530  -30.5660   24.1330 C.ar      1 SUB1        0.000
      7 S1        -23.6470  -33.8000   20.8240 S.3       1 SUB1        0.000
      8 C8        -22.0880  -33.4520   20.1540 C.2       1 SUB1        0.000
      9 C9        -21.5320  -32.3500   20.8900 C.2       1 SUB1        0.000
     10 C7        -20.0330  -31.8890   20.7210 C.3       1 SUB1        0.000
     11 C10       -21.4260  -34.1300   18.9550 C.ar      1 SUB1        0.000
     12 C12       -20.6730  -33.4050   17.8610 C.ar      1 SUB1        0.000
     13 C14       -19.8730  -34.1180   16.7580 C.ar      1 SUB1        0.000
     14 C16       -19.8620  -35.6420   16.7600 C.ar      1 SUB1        0.000
     15 C18       -20.6000  -36.3640   17.9070 C.ar      1 SUB1        0.000
     16 C20       -21.3850  -35.5920   18.9530 C.ar      1 SUB1        0.000
     17 O2        -19.2780  -36.3290   15.6790 O.3       1 SUB1        0.000
     18 C24       -19.7400  -37.7380   15.4470 C.3       1 SUB1        0.000
     19 C11       -19.0820  -34.1270   22.0000 C.ar      1 SUB1        0.000
     20 C13       -18.8900  -32.7840   21.3360 C.ar      1 SUB1        0.000
     21 C15       -17.4420  -32.2930   21.2360 C.ar      1 SUB1        0.000
     22 C32       -16.2420  -33.1290   21.7230 C.ar      1 SUB1        0.000
     23 C19       -16.4770  -34.5320   22.2930 C.ar      1 SUB1        0.000
     24 C21       -17.9200  -34.9490   22.4970 C.ar      1 SUB1        0.000
     25 O3        -15.4510  -35.4620   22.4970 O.3       1 SUB1        0.000
     26 C25       -15.4980  -36.3170   23.6870 C.3       1 SUB1        0.000
     27 C17       -13.6880  -34.0420   27.4530 C.3       1 SUB1        0.000
     28 C23       -13.3740  -33.1640   26.2400 C.3       1 SUB1        0.000
     29 C26       -13.5440  -33.9740   24.9710 C.3       1 SUB1        0.000
     30 N2        -14.0910  -35.3050   25.4950 N.4       1 SUB1        1.000
     31 C27       -14.0850  -35.4630   26.9900 C.3       1 SUB1        0.000
     32 C22       -16.5820  -39.7150   14.1100 C.3       1 SUB1        0.000
     33 N3        -17.5190  -39.0810   15.1530 N.4       1 SUB1        1.000
     34 C28       -17.7980  -39.9780   16.3550 C.3       1 SUB1        0.000
     35 C29       -17.3290  -41.3500   15.8450 C.3       1 SUB1        0.000
     36 C30       -16.7400  -41.2040   14.4320 C.3       1 SUB1        0.000
     37 C33       -14.1860  -36.4010   24.4910 C.3       1 SUB1        0.000
     38 C34       -18.8370  -38.6190   14.5710 C.3       1 SUB1        0.000
     39 H1        -25.1205  -31.2999   25.0439 H         1 SUB1        0.000
     40 H2        -25.5779  -33.0014   23.0771 H         1 SUB1        0.000
     41 H3        -21.2697  -30.2450   22.8985 H         1 SUB1        0.000
     42 H4        -22.9394  -29.8012   24.8709 H         1 SUB1        0.000
     43 H5        -19.9469  -30.8935   21.1808 H         1 SUB1        0.000
     44 H6        -19.8380  -31.8123   19.6412 H         1 SUB1        0.000
     45 H7        -20.6989  -32.3213   17.8544 H         1 SUB1        0.000
     46 H8        -19.3347  -33.5552   16.0040 H         1 SUB1        0.000
     47 H9        -20.5571  -37.4455   17.9674 H         1 SUB1        0.000
     48 H10       -21.9279  -36.1375   19.7164 H         1 SUB1        0.000
     49 H11       -20.7285  -37.6910   14.9668 H         1 SUB1        0.000
     50 H12       -19.8320  -38.2256   16.4287 H         1 SUB1        0.000
     51 H13       -20.0877  -34.5122   22.1232 H         1 SUB1        0.000
     52 H14       -17.2535  -31.3166   20.8046 H         1 SUB1        0.000
     53 H15       -15.2372  -32.7266   21.6626 H         1 SUB1        0.000
     54 H16       -18.1246  -35.8754   23.0213 H         1 SUB1        0.000
     55 H17       -15.7641  -37.3343   23.3640 H         1 SUB1        0.000
     56 H18       -16.2809  -35.9276   24.3544 H         1 SUB1        0.000
     57 H19       -14.5203  -33.5976   28.0185 H         1 SUB1        0.000
     58 H20       -12.7987  -34.1043   28.0974 H         1 SUB1        0.000
     59 H21       -14.0613  -32.3054   26.2215 H         1 SUB1        0.000
     60 H22       -12.3373  -32.8025   26.3079 H         1 SUB1        0.000
     61 H23       -14.2579  -33.4934   24.2859 H         1 SUB1        0.000
     62 H24       -12.5813  -34.1148   24.4579 H         1 SUB1        0.000
     63 H25       -13.3451  -36.2109   27.3114 H         1 SUB1        0.000
     64 H26       -15.0790  -35.7448   27.3676 H         1 SUB1        0.000
     65 H27       -15.5427  -39.3814   14.2465 H         1 SUB1        0.000
     66 H28       -16.9083  -39.4878   13.0844 H         1 SUB1        0.000
     67 H29       -18.8691  -39.9894   16.6053 H         1 SUB1        0.000
     68 H30       -17.2193  -39.6593   17.2345 H         1 SUB1        0.000
     69 H31       -16.5595  -41.7484   16.5226 H         1 SUB1        0.000
     70 H32       -18.1845  -42.0409   15.8150 H         1 SUB1        0.000
     71 H33       -15.7576  -41.6971   14.3891 H         1 SUB1        0.000
     72 H34       -17.4165  -41.6700   13.7004 H         1 SUB1        0.000
     73 H35       -13.3359  -36.3249   23.7971 H         1 SUB1        0.000
     74 H36       -14.1478  -37.3684   25.0131 H         1 SUB1        0.000
     75 H37       -18.6101  -38.0494   13.6577 H         1 SUB1        0.000
     76 H38       -19.4125  -39.5189   14.3084 H         1 SUB1        0.000
@<TRIPOS>BOND
     1    1    6 ar 
     2    1    2 ar 
     3    2    3 ar 
     4    3    7 1  
     5    3    4 ar 
     6    4    9 1  
     7    4    5 ar 
     8    5    6 ar 
     9    9   10 1  
    10    9    8 2  
    11    8   11 1  
    12    8    7 1  
    13   11   16 ar 
    14   11   12 ar 
    15   12   13 ar 
    16   13   14 ar 
    17   14   17 1  
    18   14   15 ar 
    19   15   16 ar 
    20   17   18 1  
    21   18   38 1  
    22   38   33 1  
    23   33   34 1  
    24   33   32 1  
    25   32   36 1  
    26   36   35 1  
    27   35   34 1  
    28   10   20 1  
    29   20   19 ar 
    30   20   21 ar 
    31   21   22 ar 
    32   22   23 ar 
    33   23   25 1  
    34   23   24 ar 
    35   24   19 ar 
    36   25   26 1  
    37   26   37 1  
    38   37   30 1  
    39   30   31 1  
    40   30   29 1  
    41   29   28 1  
    42   28   27 1  
    43   27   31 1  
    44    1   39 1  
    45    2   40 1  
    46    5   41 1  
    47    6   42 1  
    48   10   43 1  
    49   10   44 1  
    50   12   45 1  
    51   13   46 1  
    52   15   47 1  
    53   16   48 1  
    54   18   49 1  
    55   18   50 1  
    56   19   51 1  
    57   21   52 1  
    58   22   53 1  
    59   24   54 1  
    60   26   55 1  
    61   26   56 1  
    62   27   57 1  
    63   27   58 1  
    64   28   59 1  
    65   28   60 1  
    66   29   61 1  
    67   29   62 1  
    68   31   63 1  
    69   31   64 1  
    70   32   65 1  
    71   32   66 1  
    72   34   67 1  
    73   34   68 1  
    74   35   69 1  
    75   35   70 1  
    76   36   71 1  
    77   36   72 1  
    78   37   73 1  
    79   37   74 1  
    80   38   75 1  
    81   38   76 1  
@<TRIPOS>SUBSTRUCTURE
     1 SUB1        1 GROUP

