### Name: 1d3t_ligand
### Creating user name: arthur
### Creation time: Tue Nov 27 11:30:28 2001


@<TRIPOS>MOLECULE
1d3t_ligand
   74    79     1     0     0
SMALL
USER_CHARGES


@<TRIPOS>ATOM
      1 H1        -25.4873  -31.1917   24.7129 H         1 SUB1        0.000
      2 H2        -25.7139  -33.3667   23.2029 H         1 SUB1        0.000
      3 H3        -21.5460  -30.4260   22.5462 H         1 SUB1        0.000
      4 H4        -23.3544  -29.6615   24.3458 H         1 SUB1        0.000
      5 H5        -22.2575  -36.8762   20.2061 H         1 SUB1        0.000
      6 H6        -21.0666  -38.4385   18.5397 H         1 SUB1        0.000
      7 H7        -19.5617  -34.7795   16.3398 H         1 SUB1        0.000
      8 H8        -20.8029  -33.2985   18.0995 H         1 SUB1        0.000
      9 H9        -19.8908  -39.3700   17.3433 H         1 SUB1        0.000
     10 H10       -18.1400  -39.0054   17.1746 H         1 SUB1        0.000
     11 H11       -17.5380  -31.8713   20.3054 H         1 SUB1        0.000
     12 H12       -19.9759  -35.1458   22.2616 H         1 SUB1        0.000
     13 H13       -15.3825  -33.1128   21.1739 H         1 SUB1        0.000
     14 H14       -15.9918  -37.2223   23.5418 H         1 SUB1        0.000
     15 H15       -15.9693  -35.6968   24.4900 H         1 SUB1        0.000
     16 H16       -15.5349  -33.3819   26.3282 H         1 SUB1        0.000
     17 H17       -14.7159  -33.8847   27.8458 H         1 SUB1        0.000
     18 H18       -12.6843  -33.5003   26.9454 H         1 SUB1        0.000
     19 H19       -13.5143  -32.7904   25.5192 H         1 SUB1        0.000
     20 H20       -11.8868  -35.0887   25.4849 H         1 SUB1        0.000
     21 H21       -13.0801  -34.6418   24.2188 H         1 SUB1        0.000
     22 H22       -15.9489  -35.5593   25.7924 H         1 SUB1        0.000
     23 H23       -15.2362  -36.0519   27.3660 H         1 SUB1        0.000
     24 H24       -18.0367  -41.8637   13.7338 H         1 SUB1        0.000
     25 H25       -16.8484  -42.0577   15.0669 H         1 SUB1        0.000
     26 H26       -16.4151  -38.3344   15.2417 H         1 SUB1        0.000
     27 H27       -17.5221  -38.1695   13.8367 H         1 SUB1        0.000
     28 H28       -14.8168  -39.3187   13.9285 H         1 SUB1        0.000
     29 H29       -15.8508  -38.9866   12.4977 H         1 SUB1        0.000
     30 H30       -16.3808  -41.1814   12.2986 H         1 SUB1        0.000
     31 H31       -15.1757  -41.5304   13.5842 H         1 SUB1        0.000
     32 H32       -13.2674  -36.4885   23.7072 H         1 SUB1        0.000
     33 H33       -14.1051  -37.8125   24.5858 H         1 SUB1        0.000
     34 H34       -19.6778  -39.4495   14.6416 H         1 SUB1        0.000
     35 H35       -19.4379  -40.8782   15.7036 H         1 SUB1        0.000
     36 C1        -24.7230  -31.4530   23.9900 C.ar      1 SUB1        0.000
     37 C2        -24.8350  -32.7380   23.1170 C.ar      1 SUB1        0.000
     38 C3        -23.7620  -33.1130   22.1740 C.ar      1 SUB1        0.000
     39 C4        -22.5480  -32.2820   21.9750 C.ar      1 SUB1        0.000
     40 C5        -22.4150  -31.0500   22.7210 C.ar      1 SUB1        0.000
     41 C6        -23.4900  -30.5780   23.7830 C.ar      1 SUB1        0.000
     42 S1        -23.6370  -34.5220   21.2860 S.3       1 SUB1        0.000
     43 C8        -22.1460  -34.1800   20.5160 C.2       1 SUB1        0.000
     44 C9        -21.6410  -32.9460   21.0690 C.2       1 SUB1        0.000
     45 C7        -20.2840  -32.5420   20.9470 C.2       1 SUB1        0.000
     46 C10       -21.5680  -34.9660   19.3500 C.ar      1 SUB1        0.000
     47 C12       -21.6620  -36.4350   19.4150 C.ar      1 SUB1        0.000
     48 C14       -20.9700  -37.3640   18.4340 C.ar      1 SUB1        0.000
     49 C16       -20.1360  -36.7750   17.2960 C.ar      1 SUB1        0.000
     50 C18       -20.0970  -35.2440   17.1600 C.ar      1 SUB1        0.000
     51 C20       -20.8290  -34.3770   18.2050 C.ar      1 SUB1        0.000
     52 O2        -19.4400  -37.5680   16.3530 O.3       1 SUB1        0.000
     53 C24       -19.1160  -38.9780   16.6680 C.3       1 SUB1        0.000
     54 C11       -17.6260  -32.7780   20.8930 C.ar      1 SUB1        0.000
     55 C13       -19.0180  -33.3400   21.2670 C.ar      1 SUB1        0.000
     56 C15       -19.0230  -34.6990   22.0020 C.ar      1 SUB1        0.000
     57 N1        -17.8500  -35.3760   22.3460 N.ar      1 SUB1        0.000
     58 C19       -16.4930  -34.8700   22.1250 C.ar      1 SUB1        0.000
     59 C21       -16.3640  -33.5290   21.3700 C.ar      1 SUB1        0.000
     60 O3        -15.2930  -35.5380   22.5170 O.3       1 SUB1        0.000
     61 C25       -15.4180  -36.3100   23.7620 C.3       1 SUB1        0.000
     62 C17       -14.7550  -34.0290   26.7560 C.3       1 SUB1        0.000
     63 C23       -13.4160  -33.6890   26.1460 C.3       1 SUB1        0.000
     64 C26       -12.9450  -34.8620   25.2880 C.3       1 SUB1        0.000
     65 N2        -13.8310  -36.0180   25.7150 N.4       1 SUB1        1.000
     66 C27       -15.0620  -35.4860   26.4390 C.3       1 SUB1        0.000
     67 C22       -17.2180  -41.3780   14.2850 C.3       1 SUB1        0.000
     68 N3        -17.6700  -40.0650   14.8790 N.4       1 SUB1        1.000
     69 C28       -16.8780  -38.8640   14.3960 C.3       1 SUB1        0.000
     70 C29       -15.8120  -39.4700   13.4850 C.3       1 SUB1        0.000
     71 C30       -16.0860  -40.9650   13.3360 C.3       1 SUB1        0.000
     72 C33       -14.0850  -36.7280   24.4030 C.3       1 SUB1        0.000
     73 C34       -19.0460  -39.8880   15.4280 C.3       1 SUB1        0.000
     74 O1        -20.1430  -31.3850   20.5350 O.2       1 SUB1        0.000
@<TRIPOS>BOND
     1   36    1 1  
     2   37    2 1  
     3   40    3 1  
     4   41    4 1  
     5   47    5 1  
     6   48    6 1  
     7   50    7 1  
     8   51    8 1  
     9   53    9 1  
    10   53   10 1  
    11   54   11 1  
    12   56   12 1  
    13   59   13 1  
    14   61   14 1  
    15   61   15 1  
    16   62   16 1  
    17   62   17 1  
    18   63   18 1  
    19   63   19 1  
    20   64   20 1  
    21   64   21 1  
    22   66   22 1  
    23   66   23 1  
    24   67   24 1  
    25   67   25 1  
    26   69   26 1  
    27   69   27 1  
    28   70   28 1  
    29   70   29 1  
    30   71   30 1  
    31   71   31 1  
    32   72   32 1  
    33   72   33 1  
    34   73   34 1  
    35   73   35 1  
    36   36   37 ar 
    37   36   41 ar 
    38   37   38 ar 
    39   38   39 ar 
    40   38   42 1  
    41   39   40 ar 
    42   39   44 1  
    43   40   41 ar 
    44   42   43 1  
    45   43   44 2  
    46   43   46 1  
    47   44   45 1  
    48   45   55 1  
    49   45   74 2  
    50   46   47 ar 
    51   46   51 ar 
    52   47   48 ar 
    53   48   49 ar 
    54   49   50 ar 
    55   49   52 1  
    56   50   51 ar 
    57   52   53 1  
    58   53   73 1  
    59   55   56 ar 
    60   56   57 ar 
    61   57   58 ar 
    62   58   59 ar 
    63   58   60 1  
    64   60   61 1  
    65   61   72 1  
    66   62   63 1  
    67   66   62 1  
    68   64   63 1  
    69   65   64 1  
    70   65   66 1  
    71   72   65 1  
    72   68   67 1  
    73   67   71 1  
    74   68   69 1  
    75   73   68 1  
    76   69   70 1  
    77   70   71 1  
    78   59   54 ar 
    79   55   54 ar 
@<TRIPOS>SUBSTRUCTURE
     1 SUB1        1 GROUP

