### Name: 1dbj_ligand
### Creating user name: arthur
### Creation time: Tue Nov 27 11:30:28 2001


@<TRIPOS>MOLECULE
1dbj_ligand
   51    54     1     0     0
SMALL
USER_CHARGES


@<TRIPOS>ATOM
      1 H1        -18.3069   42.2750  -11.5403 H         1 SUB1        0.000
      2 H2        -19.2731   42.8311  -10.1318 H         1 SUB1        0.000
      3 H3        -21.0561   41.2369  -10.6744 H         1 SUB1        0.000
      4 H4        -19.4863   40.3710  -10.5626 H         1 SUB1        0.000
      5 H5        -19.2532   40.4080  -13.0009 H         1 SUB1        0.000
      6 H6        -21.1047   39.0871  -13.4657 H         1 SUB1        0.000
      7 H7        -21.9841   41.8686  -13.0096 H         1 SUB1        0.000
      8 H8        -21.1297   41.2597  -14.4677 H         1 SUB1        0.000
      9 H9        -19.1437   42.7114  -13.8832 H         1 SUB1        0.000
     10 H10       -21.0707   43.4403  -15.3714 H         1 SUB1        0.000
     11 H11       -20.1579   44.7869  -14.6097 H         1 SUB1        0.000
     12 H12       -22.9069   43.7121  -13.9066 H         1 SUB1        0.000
     13 H13       -22.4499   45.3603  -14.4555 H         1 SUB1        0.000
     14 H14       -21.4503   45.8720  -12.3583 H         1 SUB1        0.000
     15 H15       -22.0275   42.9749  -11.5551 H         1 SUB1        0.000
     16 H16       -20.6969   45.2037  -10.0045 H         1 SUB1        0.000
     17 H17       -20.9717   43.5136   -9.4619 H         1 SUB1        0.000
     18 H18       -22.6598   45.1320   -8.5632 H         1 SUB1        0.000
     19 H19       -23.3862   43.8216   -9.5542 H         1 SUB1        0.000
     20 H20       -23.8948   44.2432  -11.8599 H         1 SUB1        0.000
     21 H21       -24.9007   45.5940  -13.4774 H         1 SUB1        0.000
     22 H22       -24.1362   47.0868  -12.8341 H         1 SUB1        0.000
     23 H23       -26.3415   45.3836  -11.6353 H         1 SUB1        0.000
     24 H24       -26.0660   47.1528  -11.4905 H         1 SUB1        0.000
     25 H25       -22.7508   47.3618   -9.1708 H         1 SUB1        0.000
     26 H26       -23.2583   47.8805  -10.8140 H         1 SUB1        0.000
     27 H27       -21.6774   47.0605  -10.5792 H         1 SUB1        0.000
     28 H28       -18.0240   44.2936  -12.3889 H         1 SUB1        0.000
     29 H29       -18.8554   44.9696  -10.9473 H         1 SUB1        0.000
     30 H30       -19.3477   45.4903  -12.5945 H         1 SUB1        0.000
     31 C1        -19.3250   42.4490  -11.1620 C.3       1 SUB1        0.000
     32 C2        -20.0690   41.1030  -11.1410 C.3       1 SUB1        0.000
     33 C3        -20.2460   40.5980  -12.5670 C.3       1 SUB1        0.000
     34 O3        -21.0010   39.3920  -12.5720 O.3       1 SUB1        0.000
     35 C4        -20.9990   41.6510  -13.4480 C.3       1 SUB1        0.000
     36 C5        -20.1430   42.9430  -13.4860 C.3       1 SUB1        0.000
     37 C6        -20.8430   43.9470  -14.4220 C.3       1 SUB1        0.000
     38 C7        -22.1420   44.5000  -13.8430 C.3       1 SUB1        0.000
     39 C8        -22.0560   44.9550  -12.4050 C.3       1 SUB1        0.000
     40 C9        -21.4070   43.8820  -11.5080 C.3       1 SUB1        0.000
     41 C10       -19.9920   43.5240  -12.0440 C.3       1 SUB1        0.000
     42 C11       -21.3630   44.3320  -10.0840 C.3       1 SUB1        0.000
     43 C12       -22.7520   44.7200   -9.5790 C.3       1 SUB1        0.000
     44 C13       -23.3970   45.7460  -10.4630 C.3       1 SUB1        0.000
     45 C14       -23.4440   45.2460  -11.8930 C.3       1 SUB1        0.000
     46 C15       -24.5160   46.0880  -12.5730 C.3       1 SUB1        0.000
     47 C16       -25.5820   46.1650  -11.4850 C.3       1 SUB1        0.000
     48 C17       -24.8410   45.9420  -10.1700 C.2       1 SUB1        0.000
     49 O17       -25.3300   45.9550   -9.0410 O.2       1 SUB1        0.000
     50 C18       -22.7230   47.1090  -10.2410 C.3       1 SUB1        0.000
     51 C19       -18.9870   44.6450  -11.9900 C.3       1 SUB1        0.000
@<TRIPOS>BOND
     1   31    1 1  
     2   31    2 1  
     3   32    3 1  
     4   32    4 1  
     5   33    5 1  
     6   34    6 1  
     7   35    7 1  
     8   35    8 1  
     9   36    9 1  
    10   37   10 1  
    11   37   11 1  
    12   38   12 1  
    13   38   13 1  
    14   39   14 1  
    15   40   15 1  
    16   42   16 1  
    17   42   17 1  
    18   43   18 1  
    19   43   19 1  
    20   45   20 1  
    21   46   21 1  
    22   46   22 1  
    23   47   23 1  
    24   47   24 1  
    25   50   25 1  
    26   50   26 1  
    27   50   27 1  
    28   51   28 1  
    29   51   29 1  
    30   51   30 1  
    31   31   32 1  
    32   31   41 1  
    33   32   33 1  
    34   33   34 1  
    35   33   35 1  
    36   35   36 1  
    37   36   37 1  
    38   36   41 1  
    39   37   38 1  
    40   38   39 1  
    41   39   40 1  
    42   39   45 1  
    43   40   41 1  
    44   40   42 1  
    45   41   51 1  
    46   42   43 1  
    47   43   44 1  
    48   44   45 1  
    49   44   48 1  
    50   44   50 1  
    51   45   46 1  
    52   46   47 1  
    53   47   48 1  
    54   48   49 2  
@<TRIPOS>SUBSTRUCTURE
     1 SUB1        1 GROUP

