### Name: 1dbk_ligand
### Creating user name: arthur
### Creation time: Tue Nov 27 11:30:28 2001


@<TRIPOS>MOLECULE
1dbk_ligand
   49    52     1     0     0
SMALL
USER_CHARGES


@<TRIPOS>ATOM
      1 H1        -18.0667   42.4240  -12.2199 H         1 SUB1        0.000
      2 H2        -18.9264   42.7611  -10.6791 H         1 SUB1        0.000
      3 H3        -20.1645   40.8736  -10.7742 H         1 SUB1        0.000
      4 H4        -18.6604   40.3303  -11.5921 H         1 SUB1        0.000
      5 H5        -21.9225   41.7702  -13.3467 H         1 SUB1        0.000
      6 H6        -21.0030   41.1085  -14.7407 H         1 SUB1        0.000
      7 H7        -19.1900   42.6868  -14.3436 H         1 SUB1        0.000
      8 H8        -21.3380   43.1216  -15.5698 H         1 SUB1        0.000
      9 H9        -20.4345   44.5708  -15.0127 H         1 SUB1        0.000
     10 H10       -22.9888   43.3834  -13.9040 H         1 SUB1        0.000
     11 H11       -22.7219   45.0033  -14.6332 H         1 SUB1        0.000
     12 H12       -21.4302   45.7105  -12.7023 H         1 SUB1        0.000
     13 H13       -21.9009   42.8080  -11.7638 H         1 SUB1        0.000
     14 H14       -20.5111   45.1187  -10.3105 H         1 SUB1        0.000
     15 H15       -20.6003   43.4153   -9.7475 H         1 SUB1        0.000
     16 H16       -22.2955   44.8836   -8.6286 H         1 SUB1        0.000
     17 H17       -23.0620   43.5749   -9.5910 H         1 SUB1        0.000
     18 H18       -23.9533   44.1833  -11.9769 H         1 SUB1        0.000
     19 H19       -24.8910   45.8442  -13.4112 H         1 SUB1        0.000
     20 H20       -23.8836   47.1497  -12.6988 H         1 SUB1        0.000
     21 H21       -26.2985   45.7678  -11.5405 H         1 SUB1        0.000
     22 H22       -25.5861   47.3566  -11.0988 H         1 SUB1        0.000
     23 H23       -22.3801   46.9933   -9.1158 H         1 SUB1        0.000
     24 H24       -23.1068   47.6592  -10.6175 H         1 SUB1        0.000
     25 H25       -21.4962   46.8659  -10.6743 H         1 SUB1        0.000
     26 H26       -18.1660   44.5829  -12.9230 H         1 SUB1        0.000
     27 H27       -19.0177   45.1192  -11.4352 H         1 SUB1        0.000
     28 H28       -19.7114   45.4896  -13.0502 H         1 SUB1        0.000
     29 C1        -19.0460   42.4230  -11.7190 C.3       1 SUB1        0.000
     30 C2        -19.5520   40.9680  -11.6830 C.3       1 SUB1        0.000
     31 C3        -20.3890   40.3850  -12.8350 C.2       1 SUB1        0.000
     32 O3        -20.6990   39.1910  -12.9790 O.2       1 SUB1        0.000
     33 C4        -20.9200   41.5200  -13.7240 C.3       1 SUB1        0.000
     34 C5        -20.1610   42.8400  -13.8500 C.3       1 SUB1        0.000
     35 C6        -21.0280   43.7030  -14.6890 C.3       1 SUB1        0.000
     36 C7        -22.2800   44.2190  -14.0010 C.3       1 SUB1        0.000
     37 C8        -22.0410   44.7990  -12.6250 C.3       1 SUB1        0.000
     38 C9        -21.3010   43.7300  -11.7720 C.3       1 SUB1        0.000
     39 C10       -19.9280   43.4280  -12.4310 C.3       1 SUB1        0.000
     40 C11       -21.1190   44.2020  -10.3150 C.3       1 SUB1        0.000
     41 C12       -22.4600   44.4940   -9.6440 C.3       1 SUB1        0.000
     42 C13       -23.1580   45.5110  -10.4710 C.3       1 SUB1        0.000
     43 C14       -23.3970   45.1320  -11.9540 C.3       1 SUB1        0.000
     44 C15       -24.3860   46.1920  -12.4980 C.3       1 SUB1        0.000
     45 C16       -25.3630   46.3020  -11.3180 C.3       1 SUB1        0.000
     46 C17       -24.6340   45.6440  -10.1270 C.2       1 SUB1        0.000
     47 O17       -25.1770   45.2560   -9.0850 O.2       1 SUB1        0.000
     48 C18       -22.4890   46.8500  -10.2010 C.3       1 SUB1        0.000
     49 C19       -19.1510   44.7480  -12.4620 C.3       1 SUB1        0.000
@<TRIPOS>BOND
     1   29    1 1  
     2   29    2 1  
     3   30    3 1  
     4   30    4 1  
     5   33    5 1  
     6   33    6 1  
     7   34    7 1  
     8   35    8 1  
     9   35    9 1  
    10   36   10 1  
    11   36   11 1  
    12   37   12 1  
    13   38   13 1  
    14   40   14 1  
    15   40   15 1  
    16   41   16 1  
    17   41   17 1  
    18   43   18 1  
    19   44   19 1  
    20   44   20 1  
    21   45   21 1  
    22   45   22 1  
    23   48   23 1  
    24   48   24 1  
    25   48   25 1  
    26   49   26 1  
    27   49   27 1  
    28   49   28 1  
    29   29   30 1  
    30   29   39 1  
    31   30   31 1  
    32   31   32 2  
    33   31   33 1  
    34   33   34 1  
    35   34   35 1  
    36   34   39 1  
    37   35   36 1  
    38   36   37 1  
    39   37   38 1  
    40   37   43 1  
    41   38   39 1  
    42   38   40 1  
    43   39   49 1  
    44   40   41 1  
    45   41   42 1  
    46   42   43 1  
    47   42   46 1  
    48   42   48 1  
    49   43   44 1  
    50   44   45 1  
    51   45   46 1  
    52   46   47 2  
@<TRIPOS>SUBSTRUCTURE
     1 SUB1        1 GROUP

