### Name: 1dhf_ligand
### Creating user name: arthur
### Creation time: Tue Nov 27 11:30:18 2001


@<TRIPOS>MOLECULE
1dhf_ligand
   50    52     1     0     0
SMALL
USER_CHARGES


@<TRIPOS>ATOM
      1 N1         26.9870   31.8160   21.5270 N.2       1 SUB1        0.000
      2 C2         28.0800   32.2520   20.8840 C.2       1 SUB1        0.000
      3 NA2        28.3540   33.4730   20.5880 N.pl3     1 SUB1        0.000
      4 N3         29.0990   31.3350   20.5940 N.am      1 SUB1        0.000
      5 C4         29.0270   30.0080   20.8680 C.2       1 SUB1        0.000
      6 OH4        29.9880   29.2750   20.5840 O.2       1 SUB1        0.000
      7 C4A        27.8000   29.5620   21.5520 C.2       1 SUB1        0.000
      8 N5         27.6830   28.2460   21.8730 N.2       1 SUB1        0.000
      9 C6         26.5850   27.9110   22.5260 C.2       1 SUB1        0.000
     10 C7         25.6420   28.9370   22.8120 C.2       1 SUB1        0.000
     11 N8         25.7510   30.1820   22.4800 N.2       1 SUB1        0.000
     12 C8A        26.8490   30.4830   21.8460 C.2       1 SUB1        0.000
     13 C9         26.3790   26.5030   22.8960 C.3       1 SUB1        0.000
     14 N10        27.5320   25.6140   22.9300 N.4       1 SUB1        1.000
     15 C11        31.0980   25.7060   25.0740 C.ar      1 SUB1        0.000
     16 C12        30.1820   26.7510   25.2070 C.ar      1 SUB1        0.000
     17 C13        28.9590   26.7610   24.4910 C.ar      1 SUB1        0.000
     18 C14        28.6890   25.7420   23.6810 C.ar      1 SUB1        0.000
     19 C15        29.6120   24.6290   23.5130 C.ar      1 SUB1        0.000
     20 C16        30.7960   24.6440   24.1870 C.ar      1 SUB1        0.000
     21 C          32.3600   25.8080   25.8310 C.2       1 SUB1        0.000
     22 O          33.2080   24.9280   25.7630 O.2       1 SUB1        0.000
     23 N          32.5820   26.8530   26.5600 N.am      1 SUB1        0.000
     24 CA         33.7190   27.1670   27.4450 C.3       1 SUB1        0.000
     25 CB         35.0490   27.3020   26.6160 C.3       1 SUB1        0.000
     26 CG         35.2230   28.8540   26.2060 C.3       1 SUB1        0.000
     27 CD         36.5400   29.1400   25.4530 C.2       1 SUB1        0.000
     28 OE1        37.2410   28.1380   25.2880 O.co2     1 SUB1       -0.500
     29 OE2        36.8190   30.3080   25.0590 O.co2     1 SUB1       -0.500
     30 CT         33.5300   28.4070   28.2780 C.2       1 SUB1        0.000
     31 O1         32.7160   29.3300   27.9930 O.co2     1 SUB1       -0.500
     32 O2         34.3090   28.4360   29.2690 O.co2     1 SUB1       -0.500
     33 H1         27.6617   34.2142   20.7675 H         1 SUB1        0.000
     34 H2         29.2658   33.7098   20.1714 H         1 SUB1        0.000
     35 H3         29.9305   31.6797   20.1583 H         1 SUB1        0.000
     36 H4         24.7468   28.6476   23.3605 H         1 SUB1        0.000
     37 H5         25.6647   26.0796   22.1746 H         1 SUB1        0.000
     38 H6         25.9334   26.4941   23.9016 H         1 SUB1        0.000
     39 H7         27.8516   25.5751   21.9748 H         1 SUB1        0.000
     40 H8         27.1546   24.7177   23.1949 H         1 SUB1        0.000
     41 H9         30.4116   27.5743   25.8737 H         1 SUB1        0.000
     42 H10        28.2592   27.5814   24.6014 H         1 SUB1        0.000
     43 H11        29.3610   23.8002   22.8610 H         1 SUB1        0.000
     44 H12        31.5093   23.8404   24.0439 H         1 SUB1        0.000
     45 H13        31.8730   27.5569   26.5168 H         1 SUB1        0.000
     46 H14        33.8326   26.3200   28.1376 H         1 SUB1        0.000
     47 H15        34.9896   26.6806   25.7103 H         1 SUB1        0.000
     48 H16        35.9047   26.9787   27.2270 H         1 SUB1        0.000
     49 H17        35.2053   29.4619   27.1226 H         1 SUB1        0.000
     50 H18        34.3810   29.1413   25.5591 H         1 SUB1        0.000
@<TRIPOS>BOND
     1    1    2 2  
     2    1   12 1  
     3    2    3 1  
     4    2    4 am 
     5    4    5 am 
     6    5    6 2  
     7    5    7 1  
     8    7    8 1  
     9    7   12 2  
    10    8    9 2  
    11    9   10 1  
    12    9   13 1  
    13   10   11 2  
    14   11   12 1  
    15   13   14 1  
    16   14   18 1  
    17   16   15 ar 
    18   17   16 ar 
    19   18   17 ar 
    20   18   19 ar 
    21   19   20 ar 
    22   20   15 ar 
    23   15   21 1  
    24   21   22 2  
    25   21   23 am 
    26   23   24 1  
    27   24   25 1  
    28   24   30 1  
    29   25   26 1  
    30   26   27 1  
    31   27   28 ar 
    32   27   29 ar 
    33   30   31 ar 
    34   30   32 ar 
    35    3   33 1  
    36    3   34 1  
    37    4   35 1  
    38   10   36 1  
    39   13   37 1  
    40   13   38 1  
    41   14   39 1  
    42   14   40 1  
    43   16   41 1  
    44   17   42 1  
    45   19   43 1  
    46   20   44 1  
    47   23   45 1  
    48   24   46 1  
    49   25   47 1  
    50   25   48 1  
    51   26   49 1  
    52   26   50 1  
@<TRIPOS>SUBSTRUCTURE
     1 SUB1        1 GROUP

