### Name: 1dr1_ligand
### Creating user name: arthur
### Creation time: Tue Nov 27 11:30:18 2001


@<TRIPOS>MOLECULE
1dr1_ligand
   28    29     1     0     0
SMALL
USER_CHARGES


@<TRIPOS>ATOM
      1 H1         14.8519    3.9660    3.9883 H         1 SUB1        0.000
      2 H2         15.7351    4.7799    2.6691 H         1 SUB1        0.000
      3 H3         17.2809    6.4393    3.2531 H         1 SUB1        0.000
      4 H4         16.5275    6.5143    9.9772 H         1 SUB1        0.000
      5 H5         18.3195    7.9586   10.6862 H         1 SUB1        0.000
      6 H6         18.5321   10.5161   10.6217 H         1 SUB1        0.000
      7 H7         16.0644   10.8077   10.6895 H         1 SUB1        0.000
      8 H8         16.4912    9.2344   11.4439 H         1 SUB1        0.000
      9 H9         15.8430    9.2811    9.7692 H         1 SUB1        0.000
     10 H10        20.0259    7.6915    9.1715 H         1 SUB1        0.000
     11 H11        18.6479   10.5592    8.2550 H         1 SUB1        0.000
     12 NA2        15.5410    4.6640    3.6740 N.pl3     1 SUB1        0.000
     13 C2         16.1890    5.4260    4.5780 C.2       1 SUB1        0.000
     14 N1         15.8600    5.2770    5.9550 N.2       1 SUB1        0.000
     15 N3         17.1000    6.3550    4.2330 N.am      1 SUB1        0.000
     16 C4         17.8210    7.2100    5.0500 C.2       1 SUB1        0.000
     17 C4A        17.4960    6.9910    6.4090 C.2       1 SUB1        0.000
     18 C8A        16.5160    6.1130    6.8150 C.2       1 SUB1        0.000
     19 N8         16.2020    5.8700    8.0840 N.2       1 SUB1        0.000
     20 C7         16.7910    6.6550    8.9300 C.2       1 SUB1        0.000
     21 C6         17.6990    7.6340    8.6680 C.2       1 SUB1        0.000
     22 N5         18.0840    7.8010    7.3660 N.2       1 SUB1        0.000
     23 C9         18.3870    8.4910    9.7260 C.3       1 SUB1        0.000
     24 C10        17.8780    9.9260    9.9630 C.3       1 SUB1        0.000
     25 C11        16.4740    9.8040   10.5030 C.3       1 SUB1        0.000
     26 O4         18.6970    8.0220    4.5980 O.2       1 SUB1        0.000
     27 O9         19.6900    8.5670    9.3240 O.3       1 SUB1        0.000
     28 O10        17.7780   10.4690    8.6260 O.3       1 SUB1        0.000
@<TRIPOS>BOND
     1   12    1 1  
     2   12    2 1  
     3   15    3 1  
     4   20    4 1  
     5   23    5 1  
     6   24    6 1  
     7   25    7 1  
     8   25    8 1  
     9   25    9 1  
    10   27   10 1  
    11   28   11 1  
    12   12   13 1  
    13   13   14 2  
    14   13   15 am 
    15   14   18 1  
    16   15   16 am 
    17   16   17 1  
    18   16   26 2  
    19   17   18 2  
    20   17   22 1  
    21   18   19 1  
    22   19   20 2  
    23   20   21 1  
    24   21   22 2  
    25   21   23 1  
    26   23   24 1  
    27   23   27 1  
    28   24   25 1  
    29   24   28 1  
@<TRIPOS>SUBSTRUCTURE
     1 SUB1        1 GROUP

