### Name: 1drf_ligand
### Creating user name: arthur
### Creation time: Tue Nov 27 11:30:18 2001


@<TRIPOS>MOLECULE
1drf_ligand
   49    51     1     0     0
SMALL
USER_CHARGES


@<TRIPOS>ATOM
      1 H1         26.1027   12.0788   -6.2788 H         1 SUB1        0.000
      2 H2         27.6804   12.3193   -7.0762 H         1 SUB1        0.000
      3 H3         29.4836   12.8024   -5.7904 H         1 SUB1        0.000
      4 H4         26.3740   12.3166    0.3180 H         1 SUB1        0.000
      5 H5         29.0870   11.4892    1.4642 H         1 SUB1        0.000
      6 H6         28.2165   13.0438    1.6922 H         1 SUB1        0.000
      7 H7         31.0695   12.6019    0.9191 H         1 SUB1        0.000
      8 H8         33.3285   16.8073    1.3687 H         1 SUB1        0.000
      9 H9         32.7106   14.4710    1.9533 H         1 SUB1        0.000
     10 H10        28.9992   15.1558   -0.1667 H         1 SUB1        0.000
     11 H11        29.6309   17.4983   -0.5855 H         1 SUB1        0.000
     12 H12        30.3102   18.9209   -1.2514 H         1 SUB1        0.000
     13 H13        32.1713   21.4239   -1.2902 H         1 SUB1        0.000
     14 H14        30.7799   20.0163   -3.5354 H         1 SUB1        0.000
     15 H15        32.4426   19.5595   -3.0320 H         1 SUB1        0.000
     16 H16        32.6813   22.2473   -3.4481 H         1 SUB1        0.000
     17 H17        31.4296   21.7984   -4.6558 H         1 SUB1        0.000
     18 N1         26.7790   12.3250   -3.9960 N.2       1 SUB1        0.000
     19 C2         27.6840   12.4530   -5.0330 C.2       1 SUB1        0.000
     20 NA2        27.1130   12.2700   -6.2180 N.pl3     1 SUB1        0.000
     21 N3         28.9810   12.7000   -4.9320 N.am      1 SUB1        0.000
     22 C4         29.7010   12.8290   -3.7910 C.2       1 SUB1        0.000
     23 OH4        30.9150   13.0540   -3.7040 O.2       1 SUB1        0.000
     24 C4A        28.7380   12.6730   -2.6350 C.2       1 SUB1        0.000
     25 N5         29.2680   12.6240   -1.3690 N.2       1 SUB1        0.000
     26 C6         28.4980   12.4620   -0.3420 C.2       1 SUB1        0.000
     27 C7         27.0430   12.3410   -0.5410 C.2       1 SUB1        0.000
     28 N8         26.5520   12.2620   -1.7680 N.2       1 SUB1        0.000
     29 C8A        27.4920   12.5140   -2.8190 C.2       1 SUB1        0.000
     30 C9         28.9900   12.5250    1.1070 C.3       1 SUB1        0.000
     31 N10        30.3320   13.2350    1.3900 N.4       1 SUB1        1.000
     32 C11        31.5360   17.2770    0.3030 C.ar      1 SUB1        0.000
     33 C12        32.3650   16.4270    1.0490 C.ar      1 SUB1        0.000
     34 C13        32.0210   15.1060    1.4090 C.ar      1 SUB1        0.000
     35 C14        30.7880   14.6640    1.0440 C.ar      1 SUB1        0.000
     36 C15        29.9370   15.5370    0.2210 C.ar      1 SUB1        0.000
     37 C16        30.3140   16.8360   -0.0660 C.ar      1 SUB1        0.000
     38 C          31.9610   18.7180   -0.0800 C.2       1 SUB1        0.000
     39 O          33.0810   19.0850    0.5270 O.2       1 SUB1        0.000
     40 N          31.1630   19.3840   -1.0100 N.am      1 SUB1        0.000
     41 CA         31.4120   20.7660   -1.7380 C.3       1 SUB1        0.000
     42 CB         31.7170   20.3840   -3.0920 C.3       1 SUB1        0.000
     43 CG         32.3170   21.4470   -4.1090 C.3       1 SUB1        0.000
     44 CD         33.4940   21.3720   -5.3010 C.2       1 SUB1        0.000
     45 OE1        33.6260   21.7680   -6.5840 O.co2     1 SUB1       -0.500
     46 OE2        34.5030   20.7030   -4.6610 O.co2     1 SUB1       -0.500
     47 CT         30.0720   21.2440   -1.6320 C.2       1 SUB1        0.000
     48 O1         30.0310   22.3750   -1.2720 O.co2     1 SUB1       -0.500
     49 O2         28.8850   20.7070   -1.8160 O.co2     1 SUB1       -0.500
@<TRIPOS>BOND
     1   20    1 1  
     2   20    2 1  
     3   21    3 1  
     4   27    4 1  
     5   30    5 1  
     6   30    6 1  
     7   31    7 1  
     8   33    8 1  
     9   34    9 1  
    10   36   10 1  
    11   37   11 1  
    12   40   12 1  
    13   41   13 1  
    14   42   14 1  
    15   42   15 1  
    16   43   16 1  
    17   43   17 1  
    18   18   19 2  
    19   18   29 1  
    20   19   20 1  
    21   19   21 am 
    22   21   22 am 
    23   22   23 2  
    24   22   24 1  
    25   24   25 1  
    26   24   29 2  
    27   25   26 2  
    28   26   27 1  
    29   26   30 1  
    30   27   28 2  
    31   28   29 1  
    32   30   31 1  
    33   31   35 1  
    34   33   32 ar 
    35   34   33 ar 
    36   35   34 ar 
    37   35   36 ar 
    38   36   37 ar 
    39   37   32 ar 
    40   32   38 1  
    41   38   39 2  
    42   38   40 am 
    43   40   41 1  
    44   41   42 1  
    45   41   47 1  
    46   42   43 1  
    47   43   44 1  
    48   44   45 ar 
    49   44   46 ar 
    50   47   48 ar 
    51   47   49 ar 
@<TRIPOS>SUBSTRUCTURE
     1 SUB1        1 GROUP

