### Name: 1dwb_ligand
### Creating user name: arthur
### Creation time: Tue Nov 27 11:30:28 2001


@<TRIPOS>MOLECULE
1dwb_ligand
   18    18     1     0     0
SMALL
USER_CHARGES


@<TRIPOS>ATOM
      1 C1         32.5670   19.0430   24.7750 C.ar      1 SUB1        0.000
      2 C2         31.4000   18.3820   24.3930 C.ar      1 SUB1        0.000
      3 C3         31.4520   17.4250   23.3670 C.ar      1 SUB1        0.000
      4 C4         32.6760   17.1500   22.7270 C.ar      1 SUB1        0.000
      5 C5         33.8440   17.8070   23.1300 C.ar      1 SUB1        0.000
      6 C6         33.8040   18.7680   24.1480 C.ar      1 SUB1        0.000
      7 C7         32.5260   20.0430   25.8540 C.cat     1 SUB1        0.000
      8 N1         31.3620   20.3580   26.5130 N.pl3     1 SUB1        0.500
      9 N2         33.6360   20.7250   26.2460 N.pl3     1 SUB1        0.500
     10 ****       30.4600   18.6054   24.8844 H         1 SUB1        0.000
     11 ****       30.5524   16.8992   23.0682 H         1 SUB1        0.000
     12 ****       32.7135   16.4273   21.9199 H         1 SUB1        0.000
     13 ****       34.7870   17.5703   22.6506 H         1 SUB1        0.000
     14 ****       34.7043   19.2910   24.4495 H         1 SUB1        0.000
     15 ****       31.3699   21.0632   27.2637 H         1 SUB1        0.000
     16 ****       30.4817   19.8889   26.2562 H         1 SUB1        0.000
     17 ****       34.5421   20.5378   25.7933 H         1 SUB1        0.000
     18 ****       33.5703   21.4285   26.9955 H         1 SUB1        0.000
@<TRIPOS>BOND
     1    1    2 ar 
     2    1    6 ar 
     3    1    7 1  
     4    2    3 ar 
     5    3    4 ar 
     6    4    5 ar 
     7    5    6 ar 
     8    7    8 ar 
     9    7    9 ar 
    10    2   10 1  
    11    3   11 1  
    12    4   12 1  
    13    5   13 1  
    14    6   14 1  
    15    8   15 1  
    16    8   16 1  
    17    9   17 1  
    18    9   18 1  
@<TRIPOS>SUBSTRUCTURE
     1 SUB1        1 GROUP

