### Name: 1eed_ligand
### Creating user name: arthur
### Creation time: Tue Nov 27 11:30:18 2001


@<TRIPOS>MOLECULE
1eed_ligand
   99   100     1     0     0
SMALL
USER_CHARGES


@<TRIPOS>ATOM
      1 OT1         2.1180   27.1890   20.3310 O.2       1 SUB1        0.000
      2 CT1         2.6590   26.4090   19.4870 C.2       1 SUB1        0.000
      3 OT2         2.2040   25.0180   19.3660 O.3       1 SUB1        0.000
      4 CT2         1.3620   24.3570   20.3580 C.3       1 SUB1        0.000
      5 CT3         0.1070   25.1870   20.6420 C.3       1 SUB1        0.000
      6 CT4         2.1620   24.1560   21.6470 C.3       1 SUB1        0.000
      7 CT5         0.9730   22.9710   19.8170 C.3       1 SUB1        0.000
      8 C           3.4060   32.1580   15.8780 C.2       1 SUB1        0.000
      9 O           3.0450   33.1230   16.5620 O.2       1 SUB1        0.000
     10 CA1         2.7790   30.7700   16.1010 C.3       1 SUB1        0.000
     11 CM          3.2570   30.1720   17.4450 C.3       1 SUB1        0.000
     12 CH          3.8500   28.7740   17.2040 C.3       1 SUB1        0.000
     13 OH          2.8660   27.9860   16.5620 O.3       1 SUB1        0.000
     14 CA          4.2950   28.0940   18.5170 C.3       1 SUB1        0.000
     15 N           3.6650   26.7350   18.6380 N.am      1 SUB1        0.000
     16 CB          5.8330   27.9980   18.4050 C.3       1 SUB1        0.000
     17 CG          6.5580   27.5970   19.6950 C.ar      1 SUB1        0.000
     18 CD1         5.8880   26.8690   20.6830 C.ar      1 SUB1        0.000
     19 CD2         7.9030   27.9550   19.8770 C.ar      1 SUB1        0.000
     20 CE1         6.5620   26.4920   21.8510 C.ar      1 SUB1        0.000
     21 CE2         8.5770   27.5760   21.0440 C.ar      1 SUB1        0.000
     22 CZ          7.9060   26.8450   22.0310 C.ar      1 SUB1        0.000
     23 N           4.3240   32.2220   14.9150 N.am      1 SUB1        0.000
     24 CA          5.0780   33.4630   14.6120 C.3       1 SUB1        0.000
     25 CB          6.5750   33.2520   14.9320 C.3       1 SUB1        0.000
     26 CG          6.8280   32.5940   16.3040 C.3       1 SUB1        0.000
     27 CD1         6.3260   33.5220   17.4150 C.3       1 SUB1        0.000
     28 CD2         8.2110   32.3510   16.4950 C.3       1 SUB1        0.000
     29 CE1         6.5210   32.8820   18.7930 C.3       1 SUB1        0.000
     30 CE2         8.4670   31.6490   17.8380 C.3       1 SUB1        0.000
     31 CZ          7.9890   32.5210   18.9980 C.3       1 SUB1        0.000
     32 CH          4.9610   33.8490   13.1280 C.3       1 SUB1        0.000
     33 OH          5.3820   32.7690   12.3130 O.3       1 SUB1        0.000
     34 CM          3.5150   34.2070   12.7690 C.3       1 SUB1        0.000
     35 C           3.2000   35.6310   13.2290 C.2       1 SUB1        0.000
     36 O           2.9290   35.8620   14.4140 O.2       1 SUB1        0.000
     37 N           3.4250   36.6090   12.3300 N.am      1 SUB1        0.000
     38 CA          3.2460   38.0170   12.6820 C.3       1 SUB1        0.000
     39 C           1.7700   38.2940   12.9820 C.2       1 SUB1        0.000
     40 O           0.8940   38.0090   12.1660 O.co2     1 SUB1       -0.500
     41 CB          3.7010   38.8890   11.5240 C.3       1 SUB1        0.000
     42 CG          3.5780   40.3810   11.8720 C.3       1 SUB1        0.000
     43 CD1         4.1390   40.7330   13.1560 C.3       1 SUB1        0.000
     44 CD2         3.9130   41.3670   10.7810 C.3       1 SUB1        0.000
     45 OXT         1.3890   38.8490   14.1050 O.co2     1 SUB1       -0.500
     46 H           3.7197   36.3677   11.4054 H         1 SUB1        0.000
     47 HA          3.8481   38.2492   13.5728 H         1 SUB1        0.000
     48 HB2         3.0765   38.6728   10.6446 H         1 SUB1        0.000
     49 HB1         4.7517   38.6596   11.2929 H         1 SUB1        0.000
     50 HG          2.4954   40.5172   12.0115 H         1 SUB1        0.000
     51 HD13        3.6156   40.1789   13.9491 H         1 SUB1        0.000
     52 HD12        4.0205   41.8136   13.3242 H         1 SUB1        0.000
     53 HD11        5.2081   40.4745   13.1724 H         1 SUB1        0.000
     54 HD23        4.9592   41.2289   10.4706 H         1 SUB1        0.000
     55 HD22        3.7744   42.3913   11.1572 H         1 SUB1        0.000
     56 HD21        3.2498   41.2000    9.9195 H         1 SUB1        0.000
     57 ****       -0.5120   24.6712   21.3909 H         1 SUB1        0.000
     58 ****       -0.4687   25.3108   19.7129 H         1 SUB1        0.000
     59 ****        0.4001   26.1751   21.0263 H         1 SUB1        0.000
     60 ****        1.5299   23.6579   22.3969 H         1 SUB1        0.000
     61 ****        2.4874   25.1334   22.0328 H         1 SUB1        0.000
     62 ****        3.0436   23.5322   21.4379 H         1 SUB1        0.000
     63 ****        0.3369   22.4559   20.5519 H         1 SUB1        0.000
     64 ****        1.8824   22.3781   19.6398 H         1 SUB1        0.000
     65 ****        0.4214   23.0876   18.8725 H         1 SUB1        0.000
     66 ****        3.0776   30.1013   15.2802 H         1 SUB1        0.000
     67 ****        1.6833   30.8654   16.1161 H         1 SUB1        0.000
     68 ****        2.4041   30.0941   18.1353 H         1 SUB1        0.000
     69 ****        4.0255   30.8252   17.8839 H         1 SUB1        0.000
     70 ****        4.7265   28.8684   16.5461 H         1 SUB1        0.000
     71 ****        3.2117   27.1155   16.4029 H         1 SUB1        0.000
     72 ****        4.0112   28.7051   19.3865 H         1 SUB1        0.000
     73 ****        4.0165   26.0117   18.0436 H         1 SUB1        0.000
     74 ****        6.2135   28.9817   18.0926 H         1 SUB1        0.000
     75 ****        6.0720   27.2507   17.6341 H         1 SUB1        0.000
     76 ****        4.8479   26.5967   20.5449 H         1 SUB1        0.000
     77 ****        8.4200   28.5251   19.1136 H         1 SUB1        0.000
     78 ****        6.0435   25.9265   22.6168 H         1 SUB1        0.000
     79 ****        9.6170   27.8483   21.1830 H         1 SUB1        0.000
     80 ****        8.4265   26.5517   22.9355 H         1 SUB1        0.000
     81 ****        4.5122   31.4015   14.3753 H         1 SUB1        0.000
     82 ****        4.6802   34.2808   15.2308 H         1 SUB1        0.000
     83 ****        7.0745   34.2319   14.9193 H         1 SUB1        0.000
     84 ****        7.0096   32.6087   14.1527 H         1 SUB1        0.000
     85 ****        6.2836   31.6393   16.3510 H         1 SUB1        0.000
     86 ****        5.2558   33.7232   17.2598 H         1 SUB1        0.000
     87 ****        6.8865   34.4676   17.3748 H         1 SUB1        0.000
     88 ****        8.7498   33.3099   16.4820 H         1 SUB1        0.000
     89 ****        8.5799   31.7120   15.6792 H         1 SUB1        0.000
     90 ****        5.9089   31.9706   18.8612 H         1 SUB1        0.000
     91 ****        6.2085   33.5928   19.5722 H         1 SUB1        0.000
     92 ****        9.5450   31.4599   17.9478 H         1 SUB1        0.000
     93 ****        7.9233   30.6930   17.8561 H         1 SUB1        0.000
     94 ****        8.1021   31.9686   19.9425 H         1 SUB1        0.000
     95 ****        8.5907   33.4410   19.0369 H         1 SUB1        0.000
     96 ****        5.6046   34.7202   12.9359 H         1 SUB1        0.000
     97 ****        5.3070   33.0146   11.3984 H         1 SUB1        0.000
     98 ****        2.8311   33.5037   13.2666 H         1 SUB1        0.000
     99 ****        3.3824   34.1384   11.6792 H         1 SUB1        0.000
@<TRIPOS>BOND
     1   38   37 1  
     2   38   41 1  
     3   38   39 1  
     4   39   40 ar 
     5   39   45 ar 
     6   41   42 1  
     7   42   43 1  
     8   42   44 1  
     9    1    2 2  
    10    2    3 1  
    11    3    4 1  
    12    4    5 1  
    13    4    6 1  
    14    4    7 1  
    15    8    9 2  
    16    8   10 1  
    17    8   23 am 
    18   10   11 1  
    19   11   12 1  
    20   12   13 1  
    21   12   14 1  
    22   14   15 1  
    23   14   16 1  
    24   15    2 am 
    25   16   17 1  
    26   17   18 ar 
    27   17   19 ar 
    28   18   20 ar 
    29   19   21 ar 
    30   20   22 ar 
    31   21   22 ar 
    32   23   24 1  
    33   24   25 1  
    34   24   32 1  
    35   25   26 1  
    36   26   27 1  
    37   26   28 1  
    38   27   29 1  
    39   28   30 1  
    40   29   31 1  
    41   30   31 1  
    42   32   33 1  
    43   32   34 1  
    44   34   35 1  
    45   35   36 2  
    46   35   37 am 
    47   37   46 1  
    48   38   47 1  
    49   41   48 1  
    50   41   49 1  
    51   42   50 1  
    52   43   51 1  
    53   43   52 1  
    54   43   53 1  
    55   44   54 1  
    56   44   55 1  
    57   44   56 1  
    58    5   57 1  
    59    5   58 1  
    60    5   59 1  
    61    6   60 1  
    62    6   61 1  
    63    6   62 1  
    64    7   63 1  
    65    7   64 1  
    66    7   65 1  
    67   10   66 1  
    68   10   67 1  
    69   11   68 1  
    70   11   69 1  
    71   12   70 1  
    72   13   71 1  
    73   14   72 1  
    74   15   73 1  
    75   16   74 1  
    76   16   75 1  
    77   18   76 1  
    78   19   77 1  
    79   20   78 1  
    80   21   79 1  
    81   22   80 1  
    82   23   81 1  
    83   24   82 1  
    84   25   83 1  
    85   25   84 1  
    86   26   85 1  
    87   27   86 1  
    88   27   87 1  
    89   28   88 1  
    90   28   89 1  
    91   29   90 1  
    92   29   91 1  
    93   30   92 1  
    94   30   93 1  
    95   31   94 1  
    96   31   95 1  
    97   32   96 1  
    98   33   97 1  
    99   34   98 1  
   100   34   99 1  
@<TRIPOS>SUBSTRUCTURE
     1 SUB1        1 GROUP

