### Name: 1epo_ligand
### Creating user name: arthur
### Creation time: Tue Nov 27 11:30:18 2001


@<TRIPOS>MOLECULE
1epo_ligand
   95    97     1     0     0
SMALL
USER_CHARGES


@<TRIPOS>ATOM
      1 H          33.0281   -5.9081   -3.7001 H         1 SUB1        0.000
      2 HA         35.4903   -6.9916   -2.5597 H         1 SUB1        0.000
      3 HB2        34.5846   -5.5659   -0.4939 H         1 SUB1        0.000
      4 HB1        33.1619   -5.1773   -1.5194 H         1 SUB1        0.000
      5 HD1        36.8640   -5.4249   -2.0448 H         1 SUB1        0.000
      6 HD2        33.2909   -3.1415   -2.7116 H         1 SUB1        0.000
      7 HE1        38.2357   -3.7358   -3.2137 H         1 SUB1        0.000
      8 HE2        34.6585   -1.4740   -3.8897 H         1 SUB1        0.000
      9 HZ         37.0566   -1.7114   -4.1711 H         1 SUB1        0.000
     10 H          36.5172  -11.6052    7.2896 H         1 SUB1        0.000
     11 H1         30.1200   -7.1133   -5.6745 H         1 SUB1        0.000
     12 H2         30.3070   -5.5917   -6.6107 H         1 SUB1        0.000
     13 H3         31.8071   -5.9486   -4.6959 H         1 SUB1        0.000
     14 H4         32.5490   -5.5350   -6.2786 H         1 SUB1        0.000
     15 H5         33.2360   -9.4188   -6.2826 H         1 SUB1        0.000
     16 H6         33.5175   -8.1279   -7.4995 H         1 SUB1        0.000
     17 H7         31.4920   -9.3056   -8.0645 H         1 SUB1        0.000
     18 H8         30.8524   -9.0770   -6.4016 H         1 SUB1        0.000
     19 H9         35.7838   -8.2592   -0.7277 H         1 SUB1        0.000
     20 H10        33.4188   -9.4466    0.7100 H         1 SUB1        0.000
     21 H11        35.5292  -11.0755   -0.8724 H         1 SUB1        0.000
     22 H12        33.7903  -10.9431   -1.3028 H         1 SUB1        0.000
     23 H13        33.5913  -11.7814    1.2488 H         1 SUB1        0.000
     24 H14        35.1608  -12.5278    0.7946 H         1 SUB1        0.000
     25 H15        32.4311  -13.0106   -0.3789 H         1 SUB1        0.000
     26 H16        33.4858  -14.1425    0.5340 H         1 SUB1        0.000
     27 H17        33.4309  -14.6697   -1.8237 H         1 SUB1        0.000
     28 H18        35.0702  -14.1496   -1.3055 H         1 SUB1        0.000
     29 H19        34.0156  -13.0177   -2.2183 H         1 SUB1        0.000
     30 H20        34.2444   -8.7701    2.6466 H         1 SUB1        0.000
     31 H21        37.1036   -9.3433    3.3388 H         1 SUB1        0.000
     32 H22        37.5858   -7.3454    4.2392 H         1 SUB1        0.000
     33 H23        35.8814   -6.7844    4.1555 H         1 SUB1        0.000
     34 H24        36.1758   -6.9105    1.6791 H         1 SUB1        0.000
     35 H25        38.0709   -8.0669    1.3948 H         1 SUB1        0.000
     36 H26        39.0176   -6.9451    2.4302 H         1 SUB1        0.000
     37 H27        37.3682   -4.7706    3.3675 H         1 SUB1        0.000
     38 H28        35.7406   -4.8934    2.6173 H         1 SUB1        0.000
     39 H29        38.0285   -6.5243   -0.3991 H         1 SUB1        0.000
     40 H30        39.7136   -6.5532    0.2224 H         1 SUB1        0.000
     41 H31        37.3935   -3.2848    1.5613 H         1 SUB1        0.000
     42 H32        36.5589   -4.4478    0.4763 H         1 SUB1        0.000
     43 H33        38.7702   -4.2226   -0.2221 H         1 SUB1        0.000
     44 H34        39.3912   -4.4905    1.4420 H         1 SUB1        0.000
     45 H35        34.0663   -9.1274    6.0696 H         1 SUB1        0.000
     46 H36        36.1791   -9.2711    6.7573 H         1 SUB1        0.000
     47 H37        38.6131  -12.6323    7.8861 H         1 SUB1        0.000
     48 H38        39.3084  -11.7330    6.4953 H         1 SUB1        0.000
     49 H39        38.5842  -13.3573    6.2429 H         1 SUB1        0.000
     50 O1         30.9720   -7.3220   -7.5670 O.3       1 SUB1        0.000
     51 C2         30.7770   -6.5530   -6.3560 C.3       1 SUB1        0.000
     52 C3         32.0090   -6.3100   -5.7150 C.3       1 SUB1        0.000
     53 N4         32.8370   -7.4660   -5.6290 N.am      1 SUB1        0.000
     54 C5         32.8620   -8.4650   -6.6830 C.3       1 SUB1        0.000
     55 C6         31.4860   -8.6410   -7.1880 C.3       1 SUB1        0.000
     56 C          33.6370   -7.6200   -4.5270 C.2       1 SUB1        0.000
     57 O          34.3590   -8.5990   -4.4530 O.2       1 SUB1        0.000
     58 N          33.6170   -6.7070   -3.5780 N.am      1 SUB1        0.000
     59 CA         34.4320   -6.8050   -2.3250 C.3       1 SUB1        0.000
     60 C          33.8580   -7.8980   -1.3780 C.2       1 SUB1        0.000
     61 O          32.7320   -8.1850   -1.2680 O.2       1 SUB1        0.000
     62 CB         34.2260   -5.4560   -1.5280 C.3       1 SUB1        0.000
     63 CG         35.0450   -4.3950   -2.2620 C.ar      1 SUB1        0.000
     64 CD1        36.3830   -4.5380   -2.4410 C.ar      1 SUB1        0.000
     65 CD2        34.3630   -3.2670   -2.8110 C.ar      1 SUB1        0.000
     66 CE1        37.1650   -3.6050   -3.1060 C.ar      1 SUB1        0.000
     67 CE2        35.1440   -2.3490   -3.4730 C.ar      1 SUB1        0.000
     68 CZ         36.4990   -2.4730   -3.6380 C.ar      1 SUB1        0.000
     69 N          34.8240   -8.5260   -0.6400 N.am      1 SUB1        0.000
     70 CA         34.4240   -9.6120    0.2950 C.3       1 SUB1        0.000
     71 C          35.5270   -9.6380    1.4140 C.2       1 SUB1        0.000
     72 O          36.5960  -10.1450    1.1750 O.2       1 SUB1        0.000
     73 CB         34.5110  -10.9620   -0.4720 C.3       1 SUB1        0.000
     74 CG         34.2020  -12.1490    0.4110 C.3       1 SUB1        0.000
     75 CD         33.4710  -13.3180   -0.1940 C.3       1 SUB1        0.000
     76 CE         34.0330  -13.8210   -1.4670 C.3       1 SUB1        0.000
     77 N          35.1960   -9.0450    2.5090 N.am      1 SUB1        0.000
     78 CA         36.2070   -8.7560    3.5860 C.3       1 SUB1        0.000
     79 CB         36.6660   -7.3540    3.6360 C.3       1 SUB1        0.000
     80 CG         36.9750   -6.6040    2.3700 C.3       1 SUB1        0.000
     81 CD1        38.2070   -7.0160    1.6900 C.3       1 SUB1        0.000
     82 CD2        36.8100   -5.1140    2.4840 C.3       1 SUB1        0.000
     83 CE1        38.6760   -6.2700    0.4530 C.3       1 SUB1        0.000
     84 CE2        37.3100   -4.3430    1.2730 C.3       1 SUB1        0.000
     85 CZ         38.6020   -4.7580    0.7240 C.3       1 SUB1        0.000
     86 CH         35.6750   -9.3170    4.9050 C.3       1 SUB1        0.000
     87 OH1        34.3640   -8.7570    5.2470 O.3       1 SUB1        0.000
     88 OH2        36.5070   -8.9240    5.9360 O.3       1 SUB1        0.000
     89 CM         35.5910  -10.8480    4.9370 C.3       1 SUB1        0.000
     90 F1         35.1040  -11.2960    3.8410 F         1 SUB1        0.000
     91 F2         34.7100  -11.2810    5.8530 F         1 SUB1        0.000
     92 C          36.9100  -11.4650    5.2600 C.2       1 SUB1        0.000
     93 O          37.7810  -11.8210    4.4160 O.2       1 SUB1        0.000
     94 N          37.1720  -11.7830    6.5550 N.am      1 SUB1        0.000
     95 CH3        38.5090  -12.4190    6.8120 C.3       1 SUB1        0.000
@<TRIPOS>BOND
     1   58    1 1  
     2   59    2 1  
     3   62    3 1  
     4   62    4 1  
     5   64    5 1  
     6   65    6 1  
     7   66    7 1  
     8   67    8 1  
     9   68    9 1  
    10   94   10 1  
    11   51   11 1  
    12   51   12 1  
    13   52   13 1  
    14   52   14 1  
    15   54   15 1  
    16   54   16 1  
    17   55   17 1  
    18   55   18 1  
    19   69   19 1  
    20   70   20 1  
    21   73   21 1  
    22   73   22 1  
    23   74   23 1  
    24   74   24 1  
    25   75   25 1  
    26   75   26 1  
    27   76   27 1  
    28   76   28 1  
    29   76   29 1  
    30   77   30 1  
    31   78   31 1  
    32   79   32 1  
    33   79   33 1  
    34   80   34 1  
    35   81   35 1  
    36   81   36 1  
    37   82   37 1  
    38   82   38 1  
    39   83   39 1  
    40   83   40 1  
    41   84   41 1  
    42   84   42 1  
    43   85   43 1  
    44   85   44 1  
    45   87   45 1  
    46   88   46 1  
    47   95   47 1  
    48   95   48 1  
    49   95   49 1  
    50   59   58 1  
    51   59   62 1  
    52   59   60 1  
    53   60   61 2  
    54   62   63 1  
    55   63   64 ar 
    56   63   65 ar 
    57   65   67 ar 
    58   67   68 ar 
    59   68   66 ar 
    60   66   64 ar 
    61   94   95 1  
    62   51   50 1  
    63   50   55 1  
    64   51   52 1  
    65   52   53 1  
    66   53   54 1  
    67   53   56 am 
    68   54   55 1  
    69   56   57 2  
    70   56   58 am 
    71   60   69 am 
    72   69   70 1  
    73   70   71 1  
    74   70   73 1  
    75   71   72 2  
    76   71   77 am 
    77   73   74 1  
    78   74   75 1  
    79   75   76 1  
    80   77   78 1  
    81   78   79 1  
    82   78   86 1  
    83   79   80 1  
    84   80   81 1  
    85   80   82 1  
    86   81   83 1  
    87   82   84 1  
    88   83   85 1  
    89   84   85 1  
    90   86   87 1  
    91   86   88 1  
    92   86   89 1  
    93   89   90 1  
    94   89   91 1  
    95   89   92 1  
    96   92   93 2  
    97   92   94 am 
@<TRIPOS>SUBSTRUCTURE
     1 SUB1        1 GROUP

