### Name: 1etr_ligand
### Creating user name: arthur
### Creation time: Tue Nov 27 11:30:18 2001


@<TRIPOS>MOLECULE
1etr_ligand
   72    74     1     0     0
SMALL
USER_CHARGES


@<TRIPOS>ATOM
      1 S         -35.1690  -32.1600   45.7160 S.o2      1 SUB1        0.000
      2 O1        -35.9600  -32.9770   46.7400 O.2       1 SUB1        0.000
      3 O2        -34.1530  -33.0520   45.0940 O.2       1 SUB1        0.000
      4 C1        -37.3200  -29.0370   47.6640 C.3       1 SUB1        0.000
      5 C2        -36.6110  -28.0170   48.5360 C.3       1 SUB1        0.000
      6 C3        -35.3650  -27.4850   47.8910 C.3       1 SUB1        0.000
      7 C4        -34.5190  -28.6650   47.4570 C.ar      1 SUB1        0.000
      8 C5        -33.1670  -28.4470   47.3480 C.ar      1 SUB1        0.000
      9 C6        -32.3790  -29.3780   46.7280 C.ar      1 SUB1        0.000
     10 C7        -32.9890  -30.4740   46.1930 C.ar      1 SUB1        0.000
     11 C8        -34.3130  -30.7420   46.5010 C.ar      1 SUB1        0.000
     12 C9        -35.1530  -29.8260   47.0650 C.ar      1 SUB1        0.000
     13 C10       -37.4740  -26.8410   48.8390 C.3       1 SUB1        0.000
     14 N         -36.4220  -30.1510   47.3630 N.4       1 SUB1        1.000
     15 H         -37.1479  -32.2528   44.4040 H         1 SUB1        0.000
     16 N         -36.2040  -31.9230   44.4240 N.am      1 SUB1        0.000
     17 CA        -35.5900  -31.1910   43.3390 C.3       1 SUB1        0.000
     18 C         -35.7990  -29.6970   43.5510 C.2       1 SUB1        0.000
     19 O         -36.6700  -29.3770   44.3390 O.2       1 SUB1        0.000
     20 CB        -36.1440  -31.6550   41.9980 C.3       1 SUB1        0.000
     21 CG        -37.5720  -31.9960   41.9920 C.3       1 SUB1        0.000
     22 CD        -38.0390  -32.1450   40.5680 C.3       1 SUB1        0.000
     23 NE        -39.4550  -32.4600   40.6590 N.pl3     1 SUB1        0.000
     24 CZ        -40.4130  -31.5300   40.7300 C.cat     1 SUB1        0.000
     25 NH1       -40.1890  -30.2430   40.4180 N.pl3     1 SUB1        0.500
     26 NH2       -41.6320  -31.9250   41.0790 N.pl3     1 SUB1        0.500
     27 HA        -34.5087  -31.3928   43.3494 H         1 SUB1        0.000
     28 HB2       -35.5805  -32.5474   41.6882 H         1 SUB1        0.000
     29 HB1       -35.9843  -30.8485   41.2672 H         1 SUB1        0.000
     30 HG2       -38.1435  -31.1957   42.4849 H         1 SUB1        0.000
     31 HG1       -37.7267  -32.9423   42.5310 H         1 SUB1        0.000
     32 HD2       -37.4947  -32.9593   40.0673 H         1 SUB1        0.000
     33 N         -34.9960  -28.7550   43.0340 N.am      1 SUB1        0.000
     34 C1        -33.7780  -29.0960   42.3050 C.3       1 SUB1        0.000
     35 C2        -32.5830  -28.3080   42.9540 C.3       1 SUB1        0.000
     36 C3        -32.7060  -26.8400   43.1660 C.3       1 SUB1        0.000
     37 C4        -33.9650  -26.7260   44.0150 C.3       1 SUB1        0.000
     38 C5        -35.1790  -27.3130   43.2720 C.3       1 SUB1        0.000
     39 C6        -33.8760  -28.8930   40.7810 C.2       1 SUB1        0.000
     40 O1        -32.8190  -28.8150   40.1510 O.co2     1 SUB1       -0.500
     41 O2        -34.9780  -28.8860   40.2120 O.co2     1 SUB1       -0.500
     42 C7        -31.4510  -26.3080   43.8470 C.3       1 SUB1        0.000
     43 HD1       -37.8878  -31.2074   40.0129 H         1 SUB1        0.000
     44 HE        -39.7350  -33.4512   40.6693 H         1 SUB1        0.000
     45 HH11      -39.2527  -29.9429   40.1112 H         1 SUB1        0.000
     46 HH12      -40.9535  -29.5561   40.4855 H         1 SUB1        0.000
     47 HH21      -41.8126  -32.9181   41.2839 H         1 SUB1        0.000
     48 HH22      -42.3968  -31.2382   41.1448 H         1 SUB1        0.000
     49 ****      -37.6329  -28.5579   46.7246 H         1 SUB1        0.000
     50 ****      -38.2055  -29.4167   48.1947 H         1 SUB1        0.000
     51 ****      -36.3393  -28.5121   49.4800 H         1 SUB1        0.000
     52 ****      -34.8056  -26.8701   48.6114 H         1 SUB1        0.000
     53 ****      -35.6300  -26.8742   47.0154 H         1 SUB1        0.000
     54 ****      -32.7268  -27.5421   47.7511 H         1 SUB1        0.000
     55 ****      -31.3046  -29.2485   46.6642 H         1 SUB1        0.000
     56 ****      -32.4404  -31.1327   45.5296 H         1 SUB1        0.000
     57 ****      -38.4048  -27.1824   49.3156 H         1 SUB1        0.000
     58 ****      -37.7132  -26.3113   47.9051 H         1 SUB1        0.000
     59 ****      -36.9413  -26.1610   49.5201 H         1 SUB1        0.000
     60 ****      -36.4033  -30.7571   48.1682 H         1 SUB1        0.000
     61 ****      -36.8047  -30.6503   46.5754 H         1 SUB1        0.000
     62 ****      -33.5921  -30.1686   42.4629 H         1 SUB1        0.000
     63 ****      -31.7065  -28.4663   42.3085 H         1 SUB1        0.000
     64 ****      -32.3988  -28.7599   43.9398 H         1 SUB1        0.000
     65 ****      -32.8427  -26.3124   42.2105 H         1 SUB1        0.000
     66 ****      -34.1559  -25.6657   44.2368 H         1 SUB1        0.000
     67 ****      -33.8170  -27.2766   44.9557 H         1 SUB1        0.000
     68 ****      -36.0831  -27.1591   43.8794 H         1 SUB1        0.000
     69 ****      -35.2942  -26.7993   42.3062 H         1 SUB1        0.000
     70 ****      -30.5900  -26.4256   43.1726 H         1 SUB1        0.000
     71 ****      -31.2701  -26.8715   44.7742 H         1 SUB1        0.000
     72 ****      -31.5868  -25.2429   44.0858 H         1 SUB1        0.000
@<TRIPOS>BOND
     1   17   16 1  
     2   17   20 1  
     3   17   18 1  
     4   18   19 2  
     5   20   21 1  
     6   21   22 1  
     7   22   23 1  
     8   23   24 ar 
     9   24   26 ar 
    10   24   25 ar 
    11   16   15 1  
    12   17   27 1  
    13   20   28 1  
    14   20   29 1  
    15   21   30 1  
    16   21   31 1  
    17    1    2 2  
    18    1    3 2  
    19    1   11 1  
    20    1   16 1  
    21    5    4 1  
    22    6    5 1  
    23    7    6 1  
    24    8    7 ar 
    25    9    8 ar 
    26   10    9 ar 
    27   11   10 ar 
    28   11   12 ar 
    29   12    7 ar 
    30   12   14 1  
    31    5   13 1  
    32   14    4 1  
    33   22   32 1  
    34   18   33 am 
    35   33   34 1  
    36   33   38 1  
    37   34   35 1  
    38   34   39 1  
    39   35   36 1  
    40   36   37 1  
    41   36   42 1  
    42   37   38 1  
    43   39   40 ar 
    44   39   41 ar 
    45   22   43 1  
    46   23   44 1  
    47   25   45 1  
    48   25   46 1  
    49   26   47 1  
    50   26   48 1  
    51    4   49 1  
    52    4   50 1  
    53    5   51 1  
    54    6   52 1  
    55    6   53 1  
    56    8   54 1  
    57    9   55 1  
    58   10   56 1  
    59   13   57 1  
    60   13   58 1  
    61   13   59 1  
    62   14   60 1  
    63   14   61 1  
    64   34   62 1  
    65   35   63 1  
    66   35   64 1  
    67   36   65 1  
    68   37   66 1  
    69   37   67 1  
    70   38   68 1  
    71   38   69 1  
    72   42   70 1  
    73   42   71 1  
    74   42   72 1  
@<TRIPOS>SUBSTRUCTURE
     1 SUB1        1 GROUP

