### Name: 1ett_ligand
### Creating user name: arthur
### Creation time: Tue Nov 27 11:30:19 2001


@<TRIPOS>MOLECULE
1ett_ligand
   59    61     1     0     0
SMALL
USER_CHARGES


@<TRIPOS>ATOM
      1 S         -36.7260  -31.8490   45.4930 S.o2      1 SUB1        0.000
      2 O1        -35.2930  -32.2310   45.6030 O.2       1 SUB1        0.000
      3 O2        -37.5670  -33.0380   45.9630 O.2       1 SUB1        0.000
      4 C1        -37.0370  -30.4170   46.6250 C.ar      1 SUB1        0.000
      5 C2        -36.0410  -29.5090   46.9620 C.ar      1 SUB1        0.000
      6 C3        -36.3700  -28.3550   47.7050 C.ar      1 SUB1        0.000
      7 C4        -37.6490  -28.1800   48.1990 C.ar      1 SUB1        0.000
      8 C5        -38.6240  -29.1290   47.9200 C.ar      1 SUB1        0.000
      9 C6        -38.3210  -30.2260   47.1230 C.ar      1 SUB1        0.000
     10 C7        -37.9910  -27.0020   49.1120 C.3       1 SUB1        0.000
     11 CA        -36.7880  -30.6760   43.0800 C.3       1 SUB1        0.000
     12 C         -37.1850  -29.2170   43.3640 C.2       1 SUB1        0.000
     13 O         -38.3260  -28.8700   43.7610 O.2       1 SUB1        0.000
     14 N         -37.3900  -31.6250   43.9840 N.am      1 SUB1        0.000
     15 CB        -37.0310  -31.0440   41.6140 C.3       1 SUB1        0.000
     16 CG        -38.4570  -30.8170   41.1570 C.ar      1 SUB1        0.000
     17 CD1       -38.8130  -29.6390   40.5400 C.ar      1 SUB1        0.000
     18 CD2       -39.4130  -31.7560   41.4420 C.ar      1 SUB1        0.000
     19 CE1       -40.1270  -29.4150   40.1870 C.ar      1 SUB1        0.000
     20 CE2       -40.7170  -31.5230   41.0790 C.ar      1 SUB1        0.000
     21 CZ        -41.1020  -30.3450   40.4600 C.ar      1 SUB1        0.000
     22 CF        -42.4470  -30.1280   40.1580 C.cat     1 SUB1        0.000
     23 NG1       -43.2710  -31.1830   40.0910 N.pl3     1 SUB1        0.500
     24 NG2       -42.9010  -28.8790   39.9540 N.pl3     1 SUB1        0.500
     25 ****      -38.1988  -32.1434   43.7064 H         1 SUB1        0.000
     26 HG11      -44.2430  -31.1060   39.8740 H         1 SUB1        0.000
     27 HG12      -42.8890  -32.1090   40.1970 H         1 SUB1        0.000
     28 HG21      -43.8530  -28.6590   39.7320 H         1 SUB1        0.000
     29 HG22      -42.2650  -28.1110   40.1010 H         1 SUB1        0.000
     30 N1        -36.1900  -28.3530   43.2180 N.am      1 SUB1        0.000
     31 C2        -34.8190  -28.7220   42.9610 C.3       1 SUB1        0.000
     32 C3        -34.0980  -28.0400   44.0820 C.3       1 SUB1        0.000
     33 C4        -34.1730  -26.5800   43.8280 C.3       1 SUB1        0.000
     34 C5        -35.6080  -26.2610   44.0440 C.3       1 SUB1        0.000
     35 C6        -36.4020  -26.9490   42.9930 C.3       1 SUB1        0.000
     36 ****      -35.0163  -29.6859   46.6558 H         1 SUB1        0.000
     37 ****      -35.6140  -27.6003   47.8896 H         1 SUB1        0.000
     38 ****      -39.6230  -29.0136   48.3247 H         1 SUB1        0.000
     39 ****      -39.0977  -30.9440   46.8858 H         1 SUB1        0.000
     40 ****      -37.1081  -26.3553   49.2224 H         1 SUB1        0.000
     41 ****      -38.2947  -27.3795   50.0995 H         1 SUB1        0.000
     42 ****      -38.8162  -26.4237   48.6709 H         1 SUB1        0.000
     43 ****      -35.7024  -30.7398   43.2456 H         1 SUB1        0.000
     44 ****      -36.7883  -32.1083   41.4784 H         1 SUB1        0.000
     45 ****      -36.3643  -30.4331   40.9876 H         1 SUB1        0.000
     46 ****      -38.0602  -28.8874   40.3316 H         1 SUB1        0.000
     47 ****      -39.1426  -32.6749   41.9496 H         1 SUB1        0.000
     48 ****      -40.3953  -28.4916   39.6866 H         1 SUB1        0.000
     49 ****      -41.4648  -32.2810   41.2823 H         1 SUB1        0.000
     50 ****      -34.4812  -28.3488   41.9829 H         1 SUB1        0.000
     51 ****      -34.6839  -29.8128   43.0039 H         1 SUB1        0.000
     52 ****      -33.0473  -28.3646   44.1071 H         1 SUB1        0.000
     53 ****      -34.5792  -28.2808   45.0414 H         1 SUB1        0.000
     54 ****      -33.8692  -26.3445   42.7973 H         1 SUB1        0.000
     55 ****      -33.5369  -26.0254   44.5336 H         1 SUB1        0.000
     56 ****      -35.7620  -25.1740   43.9747 H         1 SUB1        0.000
     57 ****      -35.9219  -26.6132   45.0377 H         1 SUB1        0.000
     58 ****      -37.4689  -26.6996   43.0906 H         1 SUB1        0.000
     59 ****      -36.0482  -26.6611   41.9921 H         1 SUB1        0.000
@<TRIPOS>BOND
     1    1    2 2  
     2    1    3 2  
     3    1    4 1  
     4    4    5 ar 
     5    4    9 ar 
     6    5    6 ar 
     7    6    7 ar 
     8    7    8 ar 
     9    7   10 1  
    10    8    9 ar 
    11   11   12 1  
    12   11   14 1  
    13   11   15 1  
    14   12   13 2  
    15   12   30 am 
    16   14    1 1  
    17   14   25 1  
    18   15   16 1  
    19   16   17 ar 
    20   16   18 ar 
    21   17   19 ar 
    22   18   20 ar 
    23   19   21 ar 
    24   20   21 ar 
    25   21   22 1  
    26   22   23 ar 
    27   22   24 ar 
    28   23   26 1  
    29   23   27 1  
    30   24   28 1  
    31   24   29 1  
    32   30   31 1  
    33   30   35 1  
    34   31   32 1  
    35   32   33 1  
    36   33   34 1  
    37   34   35 1  
    38    5   36 1  
    39    6   37 1  
    40    8   38 1  
    41    9   39 1  
    42   10   40 1  
    43   10   41 1  
    44   10   42 1  
    45   11   43 1  
    46   15   44 1  
    47   15   45 1  
    48   17   46 1  
    49   18   47 1  
    50   19   48 1  
    51   20   49 1  
    52   31   50 1  
    53   31   51 1  
    54   32   52 1  
    55   32   53 1  
    56   33   54 1  
    57   33   55 1  
    58   34   56 1  
    59   34   57 1  
    60   35   58 1  
    61   35   59 1  
@<TRIPOS>SUBSTRUCTURE
     1 SUB1        1 GROUP

