### Name: 1fbp_ligand
### Creating user name: arthur
### Creation time: Tue Nov 27 11:30:19 2001


@<TRIPOS>MOLECULE
1fbp_ligand
   35    37     1     0     0
SMALL
USER_CHARGES


@<TRIPOS>ATOM
      1 H1         35.9374   93.4468  -13.4582 H         1 SUB1        0.000
      2 H2         34.7362   92.8537  -12.2615 H         1 SUB1        0.000
      3 H3         33.7584   93.3256  -15.1366 H         1 SUB1        0.000
      4 H4         34.9951   95.3114  -13.9604 H         1 SUB1        0.000
      5 H5         33.3282   96.5356  -15.2684 H         1 SUB1        0.000
      6 H6         33.8409   95.7673  -11.7971 H         1 SUB1        0.000
      7 H7         32.1534   97.2890  -12.3664 H         1 SUB1        0.000
      8 H8         31.2298   95.0716  -13.5050 H         1 SUB1        0.000
      9 H9         30.2047   96.0564  -10.9956 H         1 SUB1        0.000
     10 H10        30.3999   91.1980   -7.0657 H         1 SUB1        0.000
     11 H11        29.6670   92.7908   -7.3953 H         1 SUB1        0.000
     12 H12        33.3928   90.4449  -10.4227 H         1 SUB1        0.000
     13 PA         36.1780   90.5020  -13.4680 P.3       1 SUB1        0.000
     14 O1A        37.3410   91.3470  -12.9820 O.co2     1 SUB1       -0.500
     15 O2A        36.4670   89.2760  -14.4210 O.co2     1 SUB1       -0.500
     16 O3A        35.5800   89.7810  -12.2510 O.co2     1 SUB1       -0.500
     17 O5'        35.1400   91.4320  -13.9090 O.3       1 SUB1        0.000
     18 C5'        34.9880   92.9060  -13.3310 C.3       1 SUB1        0.000
     19 C4'        33.8510   93.6670  -14.0950 C.3       1 SUB1        0.000
     20 O4'        32.6020   93.4310  -13.2180 O.3       1 SUB1        0.000
     21 C3'        33.9300   95.0380  -13.9890 C.3       1 SUB1        0.000
     22 O3'        33.3030   95.5860  -15.2820 O.3       1 SUB1        0.000
     23 C2'        33.2520   95.7040  -12.7240 C.3       1 SUB1        0.000
     24 O2'        32.5610   96.8880  -13.1250 O.3       1 SUB1        0.000
     25 C1'        32.0270   94.7080  -12.8400 C.3       1 SUB1        0.000
     26 N9         31.5730   94.3890  -11.4350 N.pl3     1 SUB1        0.000
     27 C8         30.6070   95.0870  -10.7050 C.2       1 SUB1        0.000
     28 N7         30.2390   94.4250   -9.6140 N.2       1 SUB1        0.000
     29 C5         31.0170   93.3020   -9.6150 C.2       1 SUB1        0.000
     30 C6         31.0600   92.1560   -8.7320 C.2       1 SUB1        0.000
     31 N6         30.3230   92.0400   -7.6540 N.pl3     1 SUB1        0.000
     32 N1         31.8910   91.1560   -9.1380 N.2       1 SUB1        0.000
     33 C2         32.6990   91.2630  -10.2350 C.2       1 SUB1        0.000
     34 N3         32.7120   92.2640  -11.0810 N.2       1 SUB1        0.000
     35 C4         31.8360   93.2250  -10.7500 C.2       1 SUB1        0.000
@<TRIPOS>BOND
     1   18    1 1  
     2   18    2 1  
     3   19    3 1  
     4   21    4 1  
     5   22    5 1  
     6   23    6 1  
     7   24    7 1  
     8   25    8 1  
     9   27    9 1  
    10   31   10 1  
    11   31   11 1  
    12   33   12 1  
    13   13   14 ar 
    14   13   15 ar 
    15   13   16 ar 
    16   13   17 1  
    17   17   18 1  
    18   18   19 1  
    19   19   20 1  
    20   19   21 1  
    21   20   25 1  
    22   21   22 1  
    23   21   23 1  
    24   23   24 1  
    25   23   25 1  
    26   25   26 1  
    27   26   27 1  
    28   26   35 1  
    29   27   28 2  
    30   28   29 1  
    31   29   30 1  
    32   29   35 2  
    33   30   31 1  
    34   30   32 2  
    35   32   33 1  
    36   33   34 2  
    37   34   35 1  
@<TRIPOS>SUBSTRUCTURE
     1 SUB1        1 GROUP

