### Name: 1fmo_ligand
### Creating user name: arthur
### Creation time: Tue Nov 27 11:30:20 2001


@<TRIPOS>MOLECULE
1fmo_ligand
   32    34     1     0     0
SMALL
USER_CHARGES


@<TRIPOS>ATOM
      1 H1         11.7870    8.6126    0.6310 H         1 SUB1        0.000
      2 H2         10.2156   10.1181    1.4664 H         1 SUB1        0.000
      3 H3         11.8951   10.5297    1.9528 H         1 SUB1        0.000
      4 H4         11.5876    9.8006    4.1443 H         1 SUB1        0.000
      5 H5          9.3594    8.0022    3.0692 H         1 SUB1        0.000
      6 H6         10.3956    6.5747    4.5289 H         1 SUB1        0.000
      7 H7          8.2928    8.1192    5.2660 H         1 SUB1        0.000
      8 H8          9.3176    9.3133    6.9393 H         1 SUB1        0.000
      9 H9          8.3620   10.8126    5.3455 H         1 SUB1        0.000
     10 H10         8.2515    9.8002    1.6501 H         1 SUB1        0.000
     11 H11         2.0713    9.8379    2.3350 H         1 SUB1        0.000
     12 H12         3.4216    9.7132    1.1758 H         1 SUB1        0.000
     13 H13         3.9432   10.4175    6.3681 H         1 SUB1        0.000
     14 O5'        11.5450    8.5200    1.5450 O.3       1 SUB1        0.000
     15 C5'        11.0870    9.7900    2.0520 C.3       1 SUB1        0.000
     16 C4'        10.6880    9.6800    3.5230 C.3       1 SUB1        0.000
     17 O4'         9.7140   10.7250    3.8100 O.3       1 SUB1        0.000
     18 C3'         9.9730    8.3740    3.9030 C.3       1 SUB1        0.000
     19 O3'        10.8790    7.3610    4.3040 O.3       1 SUB1        0.000
     20 C2'         9.1150    8.8200    5.0590 C.3       1 SUB1        0.000
     21 O2'         9.8870    9.0340    6.2320 O.3       1 SUB1        0.000
     22 C1'         8.6250   10.1600    4.5000 C.3       1 SUB1        0.000
     23 N9          7.4440   10.0560    3.6460 N.pl3     1 SUB1        0.000
     24 C8          7.3740    9.8720    2.2910 C.2       1 SUB1        0.000
     25 N7          6.1460    9.7910    1.8430 N.2       1 SUB1        0.000
     26 C5          5.3530    9.9520    2.9740 C.ar      1 SUB1        0.000
     27 C6          3.9570    9.9570    3.1460 C.ar      1 SUB1        0.000
     28 N6          3.0830    9.8260    2.1420 N.pl3     1 SUB1        0.000
     29 N1          3.4990   10.1040    4.4020 N.ar      1 SUB1        0.000
     30 C2          4.3760   10.2590    5.3870 C.ar      1 SUB1        0.000
     31 N3          5.7050   10.2490    5.3510 N.ar      1 SUB1        0.000
     32 C4          6.1360   10.0870    4.0940 C.ar      1 SUB1        0.000
@<TRIPOS>BOND
     1   14    1 1  
     2   15    2 1  
     3   15    3 1  
     4   16    4 1  
     5   18    5 1  
     6   19    6 1  
     7   20    7 1  
     8   21    8 1  
     9   22    9 1  
    10   24   10 1  
    11   28   11 1  
    12   28   12 1  
    13   30   13 1  
    14   14   15 1  
    15   15   16 1  
    16   16   17 1  
    17   16   18 1  
    18   17   22 1  
    19   18   19 1  
    20   18   20 1  
    21   20   21 1  
    22   20   22 1  
    23   22   23 1  
    24   23   24 1  
    25   23   32 1  
    26   24   25 2  
    27   25   26 1  
    28   26   27 ar 
    29   26   32 ar 
    30   27   28 1  
    31   27   29 ar 
    32   29   30 ar 
    33   30   31 ar 
    34   31   32 ar 
@<TRIPOS>SUBSTRUCTURE
     1 SUB1        1 GROUP

