### Name: 1hri_ligand
### Creating user name: arthur
### Creation time: Tue Nov 27 11:30:29 2001


@<TRIPOS>MOLECULE
1hri_ligand
   42    43     1     0     0
SMALL
USER_CHARGES


@<TRIPOS>ATOM
      1 H1         50.5610   -4.5744  122.8030 H         1 SUB1        0.000
      2 H2         49.2784   -4.2917  124.0284 H         1 SUB1        0.000
      3 H3         49.6087   -3.0517  122.7715 H         1 SUB1        0.000
      4 H4         47.7139   -2.5579  123.3961 H         1 SUB1        0.000
      5 H5         45.3289   -1.8393  123.4565 H         1 SUB1        0.000
      6 H6         44.2436   -5.1331  120.9572 H         1 SUB1        0.000
      7 H7         46.6145   -5.9123  120.9270 H         1 SUB1        0.000
      8 H8         43.7977   -0.9233  122.6097 H         1 SUB1        0.000
      9 H9         43.2861   -2.0201  123.9370 H         1 SUB1        0.000
     10 H10        41.0098   -2.1224  122.9245 H         1 SUB1        0.000
     11 H11        41.5401   -0.9399  121.6806 H         1 SUB1        0.000
     12 H12        42.2843    0.2009  124.1579 H         1 SUB1        0.000
     13 H13        40.6541   -0.5005  124.4353 H         1 SUB1        0.000
     14 H14        39.7396    0.8069  122.5696 H         1 SUB1        0.000
     15 H15        41.3721    1.4549  122.1930 H         1 SUB1        0.000
     16 H16        41.4665    2.5794  124.3651 H         1 SUB1        0.000
     17 H17        39.8881    1.8616  124.8344 H         1 SUB1        0.000
     18 H18        39.0501    3.1662  122.6488 H         1 SUB1        0.000
     19 H19        40.4937    4.1772  122.9962 H         1 SUB1        0.000
     20 H20        38.2628    5.9128  123.4104 H         1 SUB1        0.000
     21 H21        37.5313    4.6022  127.3427 H         1 SUB1        0.000
     22 H22        39.2680    3.0214  126.2831 H         1 SUB1        0.000
     23 C1         49.5700   -4.1310  122.9800 C.3       1 SUB1        0.000
     24 O4         48.6570   -4.7190  122.1600 O.3       1 SUB1        0.000
     25 C4A        47.3150   -4.3170  122.2040 C.ar      1 SUB1        0.000
     26 C3A        46.9570   -3.1400  122.8830 C.ar      1 SUB1        0.000
     27 C2A        45.6210   -2.7200  122.8960 C.ar      1 SUB1        0.000
     28 C1A        44.6840   -3.4370  122.1900 C.ar      1 SUB1        0.000
     29 C6A        45.0080   -4.5820  121.4930 C.ar      1 SUB1        0.000
     30 C5A        46.3400   -5.0250  121.4860 C.ar      1 SUB1        0.000
     31 O1         43.4830   -2.8400  122.1200 O.3       1 SUB1        0.000
     32 C6B        43.1330   -1.7570  122.8800 C.3       1 SUB1        0.000
     33 C5B        41.6870   -1.2810  122.7160 C.3       1 SUB1        0.000
     34 C4B        41.3520   -0.1240  123.6730 C.3       1 SUB1        0.000
     35 C3B        40.7090    1.1030  122.9970 C.3       1 SUB1        0.000
     36 C2B        40.4830    2.2530  123.9960 C.3       1 SUB1        0.000
     37 C1B        39.7520    3.4910  123.4310 C.3       1 SUB1        0.000
     38 N1         39.0200    4.1830  124.4590 N.pl3     1 SUB1        0.000
     39 C2C        38.3120    5.3040  124.3120 C.2       1 SUB1        0.000
     40 N3         37.6990    5.5430  125.4130 N.2       1 SUB1        0.000
     41 C4C        37.9430    4.6570  126.3360 C.2       1 SUB1        0.000
     42 C5C        38.7910    3.8570  125.7730 C.2       1 SUB1        0.000
@<TRIPOS>BOND
     1   23    1 1  
     2   23    2 1  
     3   23    3 1  
     4   26    4 1  
     5   27    5 1  
     6   29    6 1  
     7   30    7 1  
     8   32    8 1  
     9   32    9 1  
    10   33   10 1  
    11   33   11 1  
    12   34   12 1  
    13   34   13 1  
    14   35   14 1  
    15   35   15 1  
    16   36   16 1  
    17   36   17 1  
    18   37   18 1  
    19   37   19 1  
    20   39   20 1  
    21   41   21 1  
    22   42   22 1  
    23   23   24 1  
    24   24   25 1  
    25   25   26 ar 
    26   25   30 ar 
    27   26   27 ar 
    28   27   28 ar 
    29   28   29 ar 
    30   28   31 1  
    31   29   30 ar 
    32   31   32 1  
    33   32   33 1  
    34   33   34 1  
    35   34   35 1  
    36   35   36 1  
    37   36   37 1  
    38   37   38 1  
    39   38   39 1  
    40   38   42 1  
    41   39   40 2  
    42   40   41 1  
    43   41   42 2  
@<TRIPOS>SUBSTRUCTURE
     1 SUB1        1 GROUP

