### Name: 1htf_ligand
### Creating user name: arthur
### Creation time: Tue Nov 27 11:30:20 2001


@<TRIPOS>MOLECULE
1htf_ligand
   80    83     1     0     0
SMALL
USER_CHARGES


@<TRIPOS>ATOM
      1 H1         19.4196    3.1888    2.8242 H         1 SUB1        0.000
      2 H2         16.5513    5.5423    3.7705 H         1 SUB1        0.000
      3 H3         19.4877    5.1049    4.5072 H         1 SUB1        0.000
      4 H4         17.5687    5.1614   -0.5075 H         1 SUB1        0.000
      5 H5         16.4642    4.5280    0.7595 H         1 SUB1        0.000
      6 H6         17.3580    3.3892   -0.3040 H         1 SUB1        0.000
      7 H7         20.7165    4.3392    1.2813 H         1 SUB1        0.000
      8 H8         20.0025    5.2731   -0.0769 H         1 SUB1        0.000
      9 H9         20.0108    3.4775   -0.1280 H         1 SUB1        0.000
     10 H10        18.3007    0.0439   -0.1570 H         1 SUB1        0.000
     11 H11        19.1290    9.3215    5.4933 H         1 SUB1        0.000
     12 H12        20.7220    8.9494    6.2354 H         1 SUB1        0.000
     13 H13        20.3520    0.9668   -1.1837 H         1 SUB1        0.000
     14 H14        20.2659   -0.8254   -1.2688 H         1 SUB1        0.000
     15 H15        17.2262    2.7555    7.4360 H         1 SUB1        0.000
     16 H16        18.8540    2.4904    8.1478 H         1 SUB1        0.000
     17 H17        17.1294    1.7246    4.9079 H         1 SUB1        0.000
     18 H18        19.5303    0.2547    8.1210 H         1 SUB1        0.000
     19 H19        19.5939   -1.9489    7.0270 H         1 SUB1        0.000
     20 H20        18.4614   -2.3003    4.8779 H         1 SUB1        0.000
     21 H21        17.2088   -0.4708    3.8172 H         1 SUB1        0.000
     22 H22        18.4318   -1.0463    2.0939 H         1 SUB1        0.000
     23 H23        20.1820   -1.3202    1.7962 H         1 SUB1        0.000
     24 H24        17.9474   -5.7756   -1.2399 H         1 SUB1        0.000
     25 H25        20.3058   -5.1328   -0.9773 H         1 SUB1        0.000
     26 H26        20.9010   -3.0504    0.1850 H         1 SUB1        0.000
     27 H27        16.7694   -2.2550    0.8144 H         1 SUB1        0.000
     28 H28        16.1697   -4.3356   -0.3337 H         1 SUB1        0.000
     29 H29        20.1256   10.2019   10.6098 H         1 SUB1        0.000
     30 H30        17.7069   10.0596   11.0554 H         1 SUB1        0.000
     31 H31        16.1787    9.2674    9.2918 H         1 SUB1        0.000
     32 H32        17.0660    8.6303    7.0853 H         1 SUB1        0.000
     33 H33        21.0123    9.5588    8.4088 H         1 SUB1        0.000
     34 H34        17.5411    3.1794    4.0911 H         1 SUB1        0.000
     35 H35        16.5400    3.5588    2.8408 H         1 SUB1        0.000
     36 H36        20.1683    1.7328    1.3005 H         1 SUB1        0.000
     37 H37        17.1878    4.6382    6.3670 H         1 SUB1        0.000
     38 H38        20.2280    6.6522    6.0865 H         1 SUB1        0.000
     39 H39        22.3383   -0.0559   -0.6108 H         1 SUB1        0.000
     40 C          18.5650    4.3310    1.2190 C.3       1 SUB1        0.000
     41 C1         18.4580    3.2440    2.2930 C.3       1 SUB1        0.000
     42 C2         17.5490    5.1160    3.5890 C.3       1 SUB1        0.000
     43 C3         18.4590    5.3740    4.7890 C.3       1 SUB1        0.000
     44 C4         18.4600    6.8680    5.1520 C.2       1 SUB1        0.000
     45 C5         17.4080    4.3540    0.2220 C.3       1 SUB1        0.000
     46 C6         19.9170    4.3570    0.5260 C.3       1 SUB1        0.000
     47 C7         18.2080    1.8540    1.7090 C.2       1 SUB1        0.000
     48 C8         19.2390    0.0440    0.4170 C.3       1 SUB1        0.000
     49 C9         19.6500    8.7030    6.2390 C.3       1 SUB1        0.000
     50 C10        20.3880    0.0370   -0.5970 C.3       1 SUB1        0.000
     51 C11        18.8590    3.4980    6.2450 C.2       1 SUB1        0.000
     52 C12        18.2710    2.4920    7.2150 C.3       1 SUB1        0.000
     53 C13        17.6780    0.9130    5.3720 C.ar      1 SUB1        0.000
     54 C14        18.3280    1.1290    6.5770 C.ar      1 SUB1        0.000
     55 C15        19.0210    0.0980    7.1770 C.ar      1 SUB1        0.000
     56 C16        19.0570   -1.1300    6.5620 C.ar      1 SUB1        0.000
     57 C17        18.4150   -1.3290    5.3570 C.ar      1 SUB1        0.000
     58 C18        17.7190   -0.3100    4.7600 C.ar      1 SUB1        0.000
     59 C19        19.1970   -1.2060    1.3200 C.3       1 SUB1        0.000
     60 C20        18.2030   -4.8560   -0.7260 C.ar      1 SUB1        0.000
     61 C21        19.5250   -4.4950   -0.5790 C.ar      1 SUB1        0.000
     62 C22        19.8590   -3.3270    0.0720 C.ar      1 SUB1        0.000
     63 C23        18.8680   -2.5060    0.5820 C.ar      1 SUB1        0.000
     64 C24        17.5550   -2.8900    0.4210 C.ar      1 SUB1        0.000
     65 C25        17.2110   -4.0550   -0.2240 C.ar      1 SUB1        0.000
     66 C26        19.4510    9.8560    9.8350 C.ar      1 SUB1        0.000
     67 C27        18.0980    9.7760   10.0850 C.ar      1 SUB1        0.000
     68 C28        17.2430    9.3340    9.0970 C.ar      1 SUB1        0.000
     69 C29        17.7420    8.9760    7.8590 C.ar      1 SUB1        0.000
     70 C30        19.0980    9.0560    7.6010 C.ar      1 SUB1        0.000
     71 C31        19.9470    9.4960    8.5990 C.ar      1 SUB1        0.000
     72 N          17.4500    3.7180    3.2440 N.4       1 SUB1        1.000
     73 N1         19.2830    1.2850    1.1750 N.am      1 SUB1        0.000
     74 N2         18.0550    4.4920    5.8910 N.am      1 SUB1        0.000
     75 N3         19.5100    7.3020    5.8370 N.am      1 SUB1        0.000
     76 O          17.1220    1.3050    1.7020 O.2       1 SUB1        0.000
     77 O1         17.5570    7.6270    4.8440 O.2       1 SUB1        0.000
     78 O2         20.0010    3.3940    5.8350 O.2       1 SUB1        0.000
     79 O4         21.6500   -0.0540    0.0440 O.3       1 SUB1        0.000
     80 S          18.3550    5.8670    2.1630 S.3       1 SUB1        0.000
@<TRIPOS>BOND
     1   41    1 1  
     2   42    2 1  
     3   43    3 1  
     4   45    4 1  
     5   45    5 1  
     6   45    6 1  
     7   46    7 1  
     8   46    8 1  
     9   46    9 1  
    10   48   10 1  
    11   49   11 1  
    12   49   12 1  
    13   50   13 1  
    14   50   14 1  
    15   52   15 1  
    16   52   16 1  
    17   53   17 1  
    18   55   18 1  
    19   56   19 1  
    20   57   20 1  
    21   58   21 1  
    22   59   22 1  
    23   59   23 1  
    24   60   24 1  
    25   61   25 1  
    26   62   26 1  
    27   64   27 1  
    28   65   28 1  
    29   66   29 1  
    30   67   30 1  
    31   68   31 1  
    32   69   32 1  
    33   71   33 1  
    34   72   34 1  
    35   72   35 1  
    36   73   36 1  
    37   74   37 1  
    38   75   38 1  
    39   79   39 1  
    40   41   40 1  
    41   40   45 1  
    42   40   46 1  
    43   40   80 1  
    44   41   47 1  
    45   41   72 1  
    46   42   43 1  
    47   72   42 1  
    48   42   80 1  
    49   43   44 1  
    50   43   74 1  
    51   44   75 am 
    52   44   77 2  
    53   47   73 am 
    54   47   76 2  
    55   48   50 1  
    56   48   59 1  
    57   73   48 1  
    58   50   79 1  
    59   51   52 1  
    60   74   51 am 
    61   51   78 2  
    62   52   54 1  
    63   54   55 ar 
    64   55   56 ar 
    65   56   57 ar 
    66   57   58 ar 
    67   59   63 1  
    68   61   60 ar 
    69   62   61 ar 
    70   63   62 ar 
    71   63   64 ar 
    72   64   65 ar 
    73   65   60 ar 
    74   66   67 ar 
    75   71   66 ar 
    76   68   67 ar 
    77   69   68 ar 
    78   70   69 ar 
    79   70   71 ar 
    80   75   49 1  
    81   49   70 1  
    82   58   53 ar 
    83   54   53 ar 
@<TRIPOS>SUBSTRUCTURE
     1 SUB1        1 GROUP

