### Name: 1htg_ligand
### Creating user name: arthur
### Creation time: Tue Nov 27 11:30:20 2001


@<TRIPOS>MOLECULE
1htg_ligand
  103   108     1     0     0
SMALL
USER_CHARGES


@<TRIPOS>ATOM
      1 H1         15.4878   23.0096    3.2998 H         1 SUB1        0.000
      2 H2         13.7050   22.7918    3.3304 H         1 SUB1        0.000
      3 H3         12.9404   23.0329    5.8812 H         1 SUB1        0.000
      4 H4         10.1360   25.8388    3.8826 H         1 SUB1        0.000
      5 H5          6.5275   24.5210    3.8222 H         1 SUB1        0.000
      6 H6          9.5085   22.1313    1.8419 H         1 SUB1        0.000
      7 H7          8.6438   22.3258    3.4042 H         1 SUB1        0.000
      8 H8         10.4331   22.1692    3.3815 H         1 SUB1        0.000
      9 H9         10.8829   25.5789    1.7650 H         1 SUB1        0.000
     10 H10        10.6445   24.0728    0.8157 H         1 SUB1        0.000
     11 H11        11.7685   24.0829    2.2168 H         1 SUB1        0.000
     12 H12         7.8722   27.1424    3.0618 H         1 SUB1        0.000
     13 H13         6.4407   27.6999    7.2157 H         1 SUB1        0.000
     14 H14         7.3167   29.2675    7.1727 H         1 SUB1        0.000
     15 H15         9.2937   29.4930    8.3962 H         1 SUB1        0.000
     16 H16        11.1994   28.5512    9.6052 H         1 SUB1        0.000
     17 H17        11.4983   26.1254    9.7558 H         1 SUB1        0.000
     18 H18         9.8543   24.6241    8.7162 H         1 SUB1        0.000
     19 H19         7.9096   25.5481    7.5137 H         1 SUB1        0.000
     20 H20         4.9766   24.9147    4.2411 H         1 SUB1        0.000
     21 H21         3.3845   24.8575    3.4112 H         1 SUB1        0.000
     22 H22        15.3312   24.1415    5.5439 H         1 SUB1        0.000
     23 H23         0.4977   27.4743    6.0731 H         1 SUB1        0.000
     24 H24         1.5857   26.4667    4.0901 H         1 SUB1        0.000
     25 H25         5.2087   26.0044    6.3558 H         1 SUB1        0.000
     26 H26         4.1634   27.1620    8.2680 H         1 SUB1        0.000
     27 H27         1.7918   27.8426    8.1535 H         1 SUB1        0.000
     28 H28        17.8890   16.1891    1.4882 H         1 SUB1        0.000
     29 H29        16.1747   17.9180    1.9545 H         1 SUB1        0.000
     30 H30        20.0769   17.2093    5.0357 H         1 SUB1        0.000
     31 H31        19.7084   15.7930    3.0716 H         1 SUB1        0.000
     32 H32        17.0520   21.1501    7.1354 H         1 SUB1        0.000
     33 H33        15.4783   20.3132    6.9129 H         1 SUB1        0.000
     34 H34        16.1371   24.7223    7.2687 H         1 SUB1        0.000
     35 H35        12.5988   22.9837    8.8439 H         1 SUB1        0.000
     36 H36        13.9425   21.4455   10.2049 H         1 SUB1        0.000
     37 H37        16.3966   21.4999   10.0620 H         1 SUB1        0.000
     38 H38        17.4879   23.1753    8.6211 H         1 SUB1        0.000
     39 H39        13.7874   25.7675    6.8795 H         1 SUB1        0.000
     40 H40        12.3604   24.8804    7.5147 H         1 SUB1        0.000
     41 H41        12.1819   25.2875    4.1751 H         1 SUB1        0.000
     42 H42         8.2030   24.0557    5.0643 H         1 SUB1        0.000
     43 H43         8.3871   25.6820    5.2394 H         1 SUB1        0.000
     44 H44         5.8402   27.1614    5.1975 H         1 SUB1        0.000
     45 H45         3.9669   26.8963    2.2802 H         1 SUB1        0.000
     46 H46        18.8197   19.3571    6.5104 H         1 SUB1        0.000
     47 H47        16.4798   22.6294    5.3903 H         1 SUB1        0.000
     48 H48        15.2533   25.2885    3.5457 H         1 SUB1        0.000
     49 C1         14.6060   22.9110    3.9500 C.3       1 SUB1        0.000
     50 C2         13.1600   24.0890    5.6660 C.3       1 SUB1        0.000
     51 C3         10.7590   24.1700    5.0360 C.2       1 SUB1        0.000
     52 C4          9.7720   24.8180    4.0710 C.3       1 SUB1        0.000
     53 C5          7.4120   25.1360    3.6000 C.3       1 SUB1        0.000
     54 C6          9.6910   24.0870    2.7320 C.3       1 SUB1        0.000
     55 C7          9.5600   22.5730    2.8480 C.3       1 SUB1        0.000
     56 C8         10.8230   24.4820    1.8210 C.3       1 SUB1        0.000
     57 C9          7.0150   26.5990    3.4860 C.3       1 SUB1        0.000
     58 C10         7.6770   27.9900    5.4610 C.2       1 SUB1        0.000
     59 C11         7.3930   28.1900    6.9650 C.3       1 SUB1        0.000
     60 C12         8.4930   27.5990    7.8310 C.ar      1 SUB1        0.000
     61 C13         9.4140   28.4170    8.4500 C.ar      1 SUB1        0.000
     62 C14        10.4820   27.8890    9.1340 C.ar      1 SUB1        0.000
     63 C15        10.6470   26.5360    9.2250 C.ar      1 SUB1        0.000
     64 C16         9.7280   25.6980    8.6400 C.ar      1 SUB1        0.000
     65 C17         8.6420   26.2150    7.9540 C.ar      1 SUB1        0.000
     66 C18         5.9170   26.6260    2.4350 C.2       1 SUB1        0.000
     67 C19         4.1350   25.5180    3.8700 C.3       1 SUB1        0.000
     68 C20        14.4750   24.1100    4.8540 C.3       1 SUB1        0.000
     69 C21         1.5390   27.1770    6.1210 C.ar      1 SUB1        0.000
     70 C22         2.1460   26.5960    5.0090 C.ar      1 SUB1        0.000
     71 C23         3.4800   26.1800    5.0810 C.ar      1 SUB1        0.000
     72 C24         4.1870   26.3580    6.2780 C.ar      1 SUB1        0.000
     73 C25         3.5910   26.9830    7.3650 C.ar      1 SUB1        0.000
     74 C26         2.2650   27.3780    7.2960 C.ar      1 SUB1        0.000
     75 C27        17.9590   16.7970    2.3830 C.ar      1 SUB1        0.000
     76 C28        17.0060   17.7600    2.6320 C.ar      1 SUB1        0.000
     77 C29        17.1510   18.5160    3.7780 C.ar      1 SUB1        0.000
     78 C30        18.3060   18.3480    4.6790 C.ar      1 SUB1        0.000
     79 C31        19.2170   17.3720    4.3960 C.ar      1 SUB1        0.000
     80 C32        19.0120   16.5990    3.2730 C.ar      1 SUB1        0.000
     81 C33        16.9870   19.7790    5.5020 C.2       1 SUB1        0.000
     82 C34        16.3360   20.7660    6.3940 C.3       1 SUB1        0.000
     83 C35        15.6440   23.9920    7.9000 C.ar      1 SUB1        0.000
     84 C36        14.2620   23.9390    7.9320 C.ar      1 SUB1        0.000
     85 C37        13.6800   23.0250    8.7780 C.ar      1 SUB1        0.000
     86 C38        14.4340   22.1550    9.5490 C.ar      1 SUB1        0.000
     87 C39        15.7990   22.1930    9.4810 C.ar      1 SUB1        0.000
     88 C40        16.4060   23.1230    8.6650 C.ar      1 SUB1        0.000
     89 C41        13.3420   24.7730    7.0300 C.3       1 SUB1        0.000
     90 C42        14.7620   21.7630    4.8710 C.2       1 SUB1        0.000
     91 N1         12.0070   24.5920    4.8720 N.am      1 SUB1        0.000
     92 N2          8.4180   24.9160    4.5850 N.4       1 SUB1        1.000
     93 N3          6.7490   27.2600    4.7920 N.am      1 SUB1        0.000
     94 N4          4.6600   26.3990    2.8020 N.am      1 SUB1        0.000
     95 N5         16.3540   19.4290    4.3900 N.2       1 SUB1        0.000
     96 N6         18.1690   19.1980    5.7280 N.pl3     1 SUB1        0.000
     97 N7         15.8970   21.8260    5.5120 N.am      1 SUB1        0.000
     98 O1         10.4360   23.3490    5.8760 O.2       1 SUB1        0.000
     99 O2          8.6890   28.4490    4.9480 O.2       1 SUB1        0.000
    100 O3          6.1610   26.8520    1.2570 O.2       1 SUB1        0.000
    101 O4         14.4550   25.2470    4.0590 O.3       1 SUB1        0.000
    102 O5         13.9050   20.9140    5.0660 O.2       1 SUB1        0.000
    103 S1          8.1400   24.6880    2.0090 S.3       1 SUB1        0.000
@<TRIPOS>BOND
     1   49    1 1  
     2   49    2 1  
     3   50    3 1  
     4   52    4 1  
     5   53    5 1  
     6   55    6 1  
     7   55    7 1  
     8   55    8 1  
     9   56    9 1  
    10   56   10 1  
    11   56   11 1  
    12   57   12 1  
    13   59   13 1  
    14   59   14 1  
    15   61   15 1  
    16   62   16 1  
    17   63   17 1  
    18   64   18 1  
    19   65   19 1  
    20   67   20 1  
    21   67   21 1  
    22   68   22 1  
    23   69   23 1  
    24   70   24 1  
    25   72   25 1  
    26   73   26 1  
    27   74   27 1  
    28   75   28 1  
    29   76   29 1  
    30   79   30 1  
    31   80   31 1  
    32   82   32 1  
    33   82   33 1  
    34   83   34 1  
    35   85   35 1  
    36   86   36 1  
    37   87   37 1  
    38   88   38 1  
    39   89   39 1  
    40   89   40 1  
    41   91   41 1  
    42   92   42 1  
    43   92   43 1  
    44   93   44 1  
    45   94   45 1  
    46   96   46 1  
    47   97   47 1  
    48  101   48 1  
    49   49   68 1  
    50   49   90 1  
    51   51   52 1  
    52   52   54 1  
    53   54   55 1  
    54   54   56 1  
    55   57   66 1  
    56   58   59 1  
    57   59   60 1  
    58   60   61 ar 
    59   60   65 ar 
    60   61   62 ar 
    61   62   63 ar 
    62   64   63 ar 
    63   65   64 ar 
    64   68  101 1  
    65   70   69 ar 
    66   69   74 ar 
    67   71   70 ar 
    68   71   72 ar 
    69   72   73 ar 
    70   73   74 ar 
    71   76   75 ar 
    72   80   75 ar 
    73   77   76 ar 
    74   78   77 ar 
    75   78   79 ar 
    76   79   80 ar 
    77   82   81 1  
    78   84   83 ar 
    79   83   88 ar 
    80   84   85 ar 
    81   89   84 1  
    82   85   86 ar 
    83   86   87 ar 
    84   88   87 ar 
    85   90   97 am 
    86   90  102 2  
    87   97   82 1  
    88   54  103 1  
    89   53  103 1  
    90   66  100 2  
    91   58   99 2  
    92   51   98 2  
    93   81   96 1  
    94   96   78 1  
    95   81   95 2  
    96   95   77 1  
    97   94   67 1  
    98   66   94 am 
    99   93   58 am 
   100   57   93 1  
   101   92   53 1  
   102   52   92 1  
   103   91   51 am 
   104   50   91 1  
   105   50   89 1  
   106   67   71 1  
   107   68   50 1  
   108   53   57 1  
@<TRIPOS>SUBSTRUCTURE
     1 SUB1        1 GROUP

