### Name: 1hvi_ligand
### Creating user name: arthur
### Creation time: Tue Nov 27 11:30:20 2001


@<TRIPOS>MOLECULE
1hvi_ligand
  116   119     1     0     0
SMALL
USER_CHARGES


@<TRIPOS>ATOM
      1 C1          3.4840    3.3320   10.7440 C.2       1 SUB1        0.000
      2 O2          3.3360    4.0240   11.7300 O.2       1 SUB1        0.000
      3 N3          3.9860    3.8340    9.5980 N.am      1 SUB1        0.000
      4 C4          4.1860    3.0150    8.3970 C.3       1 SUB1        0.000
      5 C5          4.3660    5.2480    9.5330 C.3       1 SUB1        0.000
      6 C6          5.8600    5.4890    9.5740 C.ar      1 SUB1        0.000
      7 C7          6.5950    5.5550    8.3900 C.ar      1 SUB1        0.000
      8 N8          6.4040    5.6810   10.7780 N.ar      1 SUB1        0.000
      9 C9          7.9510    5.8620    8.4900 C.ar      1 SUB1        0.000
     10 C10         7.7020    5.9660   10.8620 C.ar      1 SUB1        0.000
     11 C11         8.5250    6.0770    9.7510 C.ar      1 SUB1        0.000
     12 N21         3.1650    2.0470   10.7480 N.am      1 SUB1        0.000
     13 C22         2.7860    1.2980   11.9600 C.3       1 SUB1        0.000
     14 C23         3.9320    0.3780   12.3800 C.2       1 SUB1        0.000
     15 O24         4.0280   -0.7680   11.9740 O.2       1 SUB1        0.000
     16 C25         1.4690    0.5260   11.7400 C.3       1 SUB1        0.000
     17 C26         1.0410   -0.2680   12.9880 C.3       1 SUB1        0.000
     18 C27         0.3340    1.4570   11.2930 C.3       1 SUB1        0.000
     19 N37         4.8470    0.9370   13.1830 N.am      1 SUB1        0.000
     20 C38         6.1390    0.2940   13.5540 C.3       1 SUB1        0.000
     21 C39         7.2770    1.2140   13.0810 C.3       1 SUB1        0.000
     22 C40         7.5800    1.1300   11.6220 C.ar      1 SUB1        0.000
     23 C41         7.1840    2.1490   10.7610 C.ar      1 SUB1        0.000
     24 C42         7.4540    2.0420    9.3930 C.ar      1 SUB1        0.000
     25 C43         8.1290    0.9290    8.8970 C.ar      1 SUB1        0.000
     26 C44         8.5340   -0.0800    9.7830 C.ar      1 SUB1        0.000
     27 C45         8.2550    0.0170   11.1470 C.ar      1 SUB1        0.000
     28 C46         6.2460    0.1640   15.0760 C.3       1 SUB1        0.000
     29 O47         7.4730   -0.4920   15.3580 O.3       1 SUB1        0.000
     30 O48         5.1290   -0.1720   17.2130 O.3       1 SUB1        0.000
     31 C49         5.0120   -0.4270   15.8130 C.3       1 SUB1        0.000
     32 N50         5.7540   -2.8020   16.2090 N.am      1 SUB1        0.000
     33 C51         4.7380   -1.9260   15.5940 C.3       1 SUB1        0.000
     34 C52         3.3490   -2.3270   16.1270 C.3       1 SUB1        0.000
     35 C53         3.0720   -3.8220   16.0900 C.ar      1 SUB1        0.000
     36 C54         3.2530   -4.6130   17.2380 C.ar      1 SUB1        0.000
     37 C55         3.0440   -6.0000   17.1780 C.ar      1 SUB1        0.000
     38 C56         2.6440   -6.6190   15.9850 C.ar      1 SUB1        0.000
     39 C57         2.4420   -5.8380   14.8450 C.ar      1 SUB1        0.000
     40 C58         2.6580   -4.4490   14.8990 C.ar      1 SUB1        0.000
     41 N81         6.9100   -5.9190   16.6840 N.am      1 SUB1        0.000
     42 C82         7.4180   -4.5880   16.4020 C.3       1 SUB1        0.000
     43 C83         6.4320   -3.7550   15.5590 C.2       1 SUB1        0.000
     44 O84         6.3130   -3.9440   14.3650 O.2       1 SUB1        0.000
     45 C85         8.8090   -4.6600   15.7320 C.3       1 SUB1        0.000
     46 C86         9.3660   -3.2530   15.4630 C.3       1 SUB1        0.000
     47 C87         9.8170   -5.4220   16.5890 C.3       1 SUB1        0.000
     48 C97         6.7680   -6.3930   17.9220 C.2       1 SUB1        0.000
     49 O98         7.1430   -5.7640   18.9010 O.2       1 SUB1        0.000
     50 N99         6.2260   -7.6350   18.0230 N.am      1 SUB1        0.000
     51 C2          5.7910   -8.3920   16.8390 C.3       1 SUB1        0.000
     52 C3          5.9940   -8.2530   19.3450 C.3       1 SUB1        0.000
     53 C8          4.6440   -7.8700   19.9060 C.ar      1 SUB1        0.000
     54 C12         3.5550   -8.7340   19.7710 C.ar      1 SUB1        0.000
     55 N10         4.5550   -6.6680   20.5110 N.ar      1 SUB1        0.000
     56 C13         2.3170   -8.3440   20.2820 C.ar      1 SUB1        0.000
     57 C14         3.3550   -6.2960   20.9830 C.ar      1 SUB1        0.000
     58 C15         2.2110   -7.0980   20.9010 C.ar      1 SUB1        0.000
     59 H1          6.6540   -8.7520   16.2790 H         1 SUB1        0.000
     60 H2          6.7620   -7.9480   20.0510 H         1 SUB1        0.000
     61 H3          6.0670   -9.3370   19.2670 H         1 SUB1        0.000
     62 H4          3.6670   -9.6630   19.2440 H         1 SUB1        0.000
     63 H5          1.4460   -8.9840   20.1860 H         1 SUB1        0.000
     64 H6          3.2710   -5.3230   21.4500 H         1 SUB1        0.000
     65 H7          1.2670   -6.7480   21.2990 H         1 SUB1        0.000
     66 H10         5.1840   -7.7760   16.1760 H         1 SUB1        0.000
     67 H11         5.1850   -9.2540   17.1200 H         1 SUB1        0.000
     68 H12         4.6670    3.5800    7.5980 H         1 SUB1        0.000
     69 H13         4.8100    2.1490    8.6140 H         1 SUB1        0.000
     70 H14         3.2250    2.6660    8.0230 H         1 SUB1        0.000
     71 H15         3.9070    5.8240   10.3340 H         1 SUB1        0.000
     72 H16         3.9590    5.6750    8.6170 H         1 SUB1        0.000
     73 H17         6.1390    5.3370    7.4440 H         1 SUB1        0.000
     74 H18         8.5690    5.9150    7.5980 H         1 SUB1        0.000
     75 H19         8.1280    6.1120   11.8470 H         1 SUB1        0.000
     76 H20         9.5760    6.3130    9.8680 H         1 SUB1        0.000
     77 H28         3.2410    1.5760    9.8660 H         1 SUB1        0.000
     78 H29         2.6220    1.9900   12.7850 H         1 SUB1        0.000
     79 H30         1.6330   -0.1910   10.9320 H         1 SUB1        0.000
     80 H31         0.0660   -0.7310   12.8470 H         1 SUB1        0.000
     81 H32         1.7500   -1.0600   13.2330 H         1 SUB1        0.000
     82 H33         0.9580    0.3830   13.8570 H         1 SUB1        0.000
     83 H34         0.1030    2.1950   12.0630 H         1 SUB1        0.000
     84 H35         0.5880    1.9950   10.3780 H         1 SUB1        0.000
     85 H36        -0.5720    0.8880   11.0900 H         1 SUB1        0.000
     86 H59         4.6790    1.8790   13.4750 H         1 SUB1        0.000
     87 H60         6.2170   -0.7010   13.1030 H         1 SUB1        0.000
     88 H61         8.2200    1.0290   13.5920 H         1 SUB1        0.000
     89 H62         7.0320    2.2430   13.3450 H         1 SUB1        0.000
     90 H63         6.6550    3.0070   11.1510 H         1 SUB1        0.000
     91 H64         7.1430    2.8170    8.7110 H         1 SUB1        0.000
     92 H65         8.3320    0.8460    7.8380 H         1 SUB1        0.000
     93 H66         9.0640   -0.9400    9.4020 H         1 SUB1        0.000
     94 H67         8.5580   -0.7590   11.8330 H         1 SUB1        0.000
     95 H68         6.3900    1.1760   15.4620 H         1 SUB1        0.000
     96 H69         7.9230   -0.5540   14.5100 H         1 SUB1        0.000
     97 H70         5.9520   -0.6380   17.4060 H         1 SUB1        0.000
     98 H71         4.1260    0.1370   15.5160 H         1 SUB1        0.000
     99 H72         5.8590   -2.7960   17.1990 H         1 SUB1        0.000
    100 H73         4.7260   -2.0840   14.5140 H         1 SUB1        0.000
    101 H74         2.5650   -1.8050   15.5750 H         1 SUB1        0.000
    102 H75         3.2440   -1.9970   17.1600 H         1 SUB1        0.000
    103 H76         3.5760   -4.1550   18.1640 H         1 SUB1        0.000
    104 H77         3.1970   -6.5930   18.0600 H         1 SUB1        0.000
    105 H78         2.4990   -7.6920   15.9490 H         1 SUB1        0.000
    106 H79         2.1250   -6.2980   13.9220 H         1 SUB1        0.000
    107 H80         2.5120   -3.8460   14.0140 H         1 SUB1        0.000
    108 H88         6.6200   -6.5240   15.9430 H         1 SUB1        0.000
    109 H89         7.5360   -4.0350   17.3340 H         1 SUB1        0.000
    110 H90         8.7090   -5.1820   14.7790 H         1 SUB1        0.000
    111 H91        10.3760   -3.3020   15.0560 H         1 SUB1        0.000
    112 H92         8.7540   -2.7130   14.7430 H         1 SUB1        0.000
    113 H93         9.4060   -2.6640   16.3800 H         1 SUB1        0.000
    114 H94         9.9380   -4.9490   17.5650 H         1 SUB1        0.000
    115 H95         9.5000   -6.4520   16.7480 H         1 SUB1        0.000
    116 H96        10.7940   -5.4540   16.1060 H         1 SUB1        0.000
@<TRIPOS>BOND
     1    1    2 2  
     2    1    3 am 
     3    1   12 am 
     4    3    4 1  
     5    3    5 1  
     6    4   68 1  
     7    4   69 1  
     8    4   70 1  
     9    5    6 1  
    10    5   71 1  
    11    5   72 1  
    12    6    7 ar 
    13    6    8 ar 
    14    7    9 ar 
    15    7   73 1  
    16    8   10 ar 
    17    9   11 ar 
    18    9   74 1  
    19   10   11 ar 
    20   10   75 1  
    21   11   76 1  
    22   12   13 1  
    23   12   77 1  
    24   13   14 1  
    25   13   16 1  
    26   13   78 1  
    27   14   15 2  
    28   14   19 am 
    29   16   17 1  
    30   16   18 1  
    31   16   79 1  
    32   17   80 1  
    33   17   81 1  
    34   17   82 1  
    35   18   83 1  
    36   18   84 1  
    37   18   85 1  
    38   19   20 1  
    39   19   86 1  
    40   20   21 1  
    41   20   28 1  
    42   20   87 1  
    43   21   22 1  
    44   21   88 1  
    45   21   89 1  
    46   22   23 ar 
    47   22   27 ar 
    48   23   24 ar 
    49   23   90 1  
    50   24   25 ar 
    51   24   91 1  
    52   25   26 ar 
    53   25   92 1  
    54   26   27 ar 
    55   26   93 1  
    56   27   94 1  
    57   28   29 1  
    58   28   31 1  
    59   28   95 1  
    60   29   96 1  
    61   31   33 1  
    62   31   98 1  
    63   33   34 1  
    64   33  100 1  
    65   34   35 1  
    66   34  101 1  
    67   34  102 1  
    68   35   36 ar 
    69   35   40 ar 
    70   36   37 ar 
    71   36  103 1  
    72   37   38 ar 
    73   37  104 1  
    74   38   39 ar 
    75   38  105 1  
    76   39   40 ar 
    77   39  106 1  
    78   40  107 1  
    79   42   41 1  
    80   41   48 am 
    81   43   42 1  
    82   42   45 1  
    83   43   44 2  
    84   45   46 1  
    85   45   47 1  
    86   48   49 2  
    87   48   50 am 
    88   50   51 1  
    89   51   59 1  
    90   51   66 1  
    91   51   67 1  
    92   50   52 1  
    93   52   53 1  
    94   52   60 1  
    95   52   61 1  
    96   53   54 ar 
    97   53   55 ar 
    98   54   56 ar 
    99   54   62 1  
   100   55   57 ar 
   101   56   58 ar 
   102   56   63 1  
   103   57   58 ar 
   104   57   64 1  
   105   58   65 1  
   106   47  116 1  
   107   47  115 1  
   108   47  114 1  
   109   46  113 1  
   110   46  112 1  
   111   46  111 1  
   112   45  110 1  
   113   42  109 1  
   114   41  108 1  
   115   32   99 1  
   116   30   97 1  
   117   32   43 am 
   118   33   32 1  
   119   31   30 1  
@<TRIPOS>SUBSTRUCTURE
     1 SUB1        1 GROUP

