### Name: 1hvj_ligand
### Creating user name: arthur
### Creation time: Tue Nov 27 11:30:20 2001


@<TRIPOS>MOLECULE
1hvj_ligand
  115   118     1     0     0
SMALL
USER_CHARGES


@<TRIPOS>ATOM
      1 H1          4.6059    3.7977    7.6165 H         1 SUB1        0.000
      2 H2          3.2414    2.7222    8.0727 H         1 SUB1        0.000
      3 H3          4.9140    2.3194    8.5892 H         1 SUB1        0.000
      4 H4          4.0882    5.7394   10.6657 H         1 SUB1        0.000
      5 H5          3.8727    5.8706    8.8872 H         1 SUB1        0.000
      6 H6          5.7641    5.6660    7.3703 H         1 SUB1        0.000
      7 H7          8.2260    6.0651    7.1318 H         1 SUB1        0.000
      8 H8          8.5629    5.8905   11.4014 H         1 SUB1        0.000
      9 H9          9.6434    6.1530    9.1937 H         1 SUB1        0.000
     10 H10         3.3186    1.5386    9.8731 H         1 SUB1        0.000
     11 H11         2.7350    2.1026   12.7687 H         1 SUB1        0.000
     12 H12         1.7768   -0.1771   10.9934 H         1 SUB1        0.000
     13 H13         0.2153   -0.7706   12.8205 H         1 SUB1        0.000
     14 H14         1.0050    0.4507   13.8746 H         1 SUB1        0.000
     15 H15         1.9385   -0.9672   13.2875 H         1 SUB1        0.000
     16 H16         0.7328    2.0124   10.4168 H         1 SUB1        0.000
     17 H17         0.1351    2.1482   12.1053 H         1 SUB1        0.000
     18 H18        -0.4465    0.8151   11.0511 H         1 SUB1        0.000
     19 H19         4.8356    1.8976   13.6385 H         1 SUB1        0.000
     20 H20         6.1699   -0.7824   13.3344 H         1 SUB1        0.000
     21 H21         8.2892    0.4872   13.9224 H         1 SUB1        0.000
     22 H22         7.3486    2.0094   13.7646 H         1 SUB1        0.000
     23 H23         6.7341    2.8755   11.6106 H         1 SUB1        0.000
     24 H24         7.1264    2.8338    9.1550 H         1 SUB1        0.000
     25 H25         8.2873    0.9077    8.1228 H         1 SUB1        0.000
     26 H26         9.0909   -0.9614    9.5428 H         1 SUB1        0.000
     27 H27         8.7056   -0.9296   11.9982 H         1 SUB1        0.000
     28 H28         6.3622    1.1310   15.6899 H         1 SUB1        0.000
     29 H29         7.0423   -0.5269   15.5648 H         1 SUB1        0.000
     30 H30         4.3646   -0.6002   17.7624 H         1 SUB1        0.000
     31 H31         4.0723    0.1265   15.5522 H         1 SUB1        0.000
     32 H32         6.0962   -2.5395   17.1184 H         1 SUB1        0.000
     33 H33         4.7225   -2.0726   14.5248 H         1 SUB1        0.000
     34 H34         2.5734   -1.8917   15.6255 H         1 SUB1        0.000
     35 H35         3.3250   -2.1661   17.2338 H         1 SUB1        0.000
     36 H36         3.7776   -4.3851   18.0322 H         1 SUB1        0.000
     37 H37         3.3604   -6.8185   17.7832 H         1 SUB1        0.000
     38 H38         2.4820   -7.7340   15.6497 H         1 SUB1        0.000
     39 H39         1.9926   -6.2043   13.7556 H         1 SUB1        0.000
     40 H40         2.4088   -3.7617   13.9932 H         1 SUB1        0.000
     41 H41         6.8391   -6.4562   15.9406 H         1 SUB1        0.000
     42 H42         7.5979   -3.9414   17.3327 H         1 SUB1        0.000
     43 H43         8.6932   -5.0043   14.6929 H         1 SUB1        0.000
     44 H44        10.2549   -3.0634   14.7980 H         1 SUB1        0.000
     45 H45         9.4052   -2.4628   16.2622 H         1 SUB1        0.000
     46 H46         8.5428   -2.5312   14.6880 H         1 SUB1        0.000
     47 H47         9.5641   -6.2140   16.6939 H         1 SUB1        0.000
     48 H48        10.0699   -4.6459   17.4092 H         1 SUB1        0.000
     49 H49        10.8368   -5.2308   15.8938 H         1 SUB1        0.000
     50 H50         5.6126   -9.3567   17.1228 H         1 SUB1        0.000
     51 H51         6.8909   -8.5314   16.1681 H         1 SUB1        0.000
     52 H52         5.2400   -7.8286   16.2552 H         1 SUB1        0.000
     53 H53         6.9406   -7.9437   19.9976 H         1 SUB1        0.000
     54 H54         6.1426   -9.3270   19.1751 H         1 SUB1        0.000
     55 H55         3.8019   -9.6609   19.3662 H         1 SUB1        0.000
     56 H56         1.6246   -8.8808   20.3302 H         1 SUB1        0.000
     57 H57         3.5384   -5.1944   21.3732 H         1 SUB1        0.000
     58 H58         1.5084   -6.6005   21.3636 H         1 SUB1        0.000
     59 C1          3.5270    3.3460   10.7580 C.2       1 SUB1        0.000
     60 O2          3.3350    4.0090   11.7660 O.2       1 SUB1        0.000
     61 N3          4.0100    3.9090    9.6330 N.am      1 SUB1        0.000
     62 C4          4.2050    3.1390    8.4010 C.3       1 SUB1        0.000
     63 C5          4.4000    5.3360    9.6910 C.3       1 SUB1        0.000
     64 C6          5.8860    5.5810    9.5290 C.ar      1 SUB1        0.000
     65 C7          6.4060    5.7230    8.2420 C.ar      1 SUB1        0.000
     66 N8          6.6350    5.6520   10.6390 N.ar      1 SUB1        0.000
     67 C9          7.7800    5.9410    8.1120 C.ar      1 SUB1        0.000
     68 C10         7.9520    5.8470   10.5070 C.ar      1 SUB1        0.000
     69 C11         8.5730    5.9970    9.2640 C.ar      1 SUB1        0.000
     70 N22         3.2690    2.0450   10.7340 N.am      1 SUB1        0.000
     71 C23         2.9070    1.3460   11.9890 C.3       1 SUB1        0.000
     72 C24         4.0640    0.4480   12.4540 C.2       1 SUB1        0.000
     73 O25         4.1130   -0.6900   12.0270 O.2       1 SUB1        0.000
     74 C26         1.5820    0.5560   11.7900 C.3       1 SUB1        0.000
     75 C27         1.1550   -0.2390   13.0310 C.3       1 SUB1        0.000
     76 C28         0.4170    1.4470   11.3060 C.3       1 SUB1        0.000
     77 N38         4.9740    0.9640   13.3080 N.am      1 SUB1        0.000
     78 C39         6.1680    0.2220   13.7830 C.3       1 SUB1        0.000
     79 C40         7.4380    0.9690   13.4190 C.3       1 SUB1        0.000
     80 C41         7.6880    0.9710   11.9480 C.ar      1 SUB1        0.000
     81 C42         7.2460    2.0350   11.1560 C.ar      1 SUB1        0.000
     82 C43         7.4670    2.0110    9.7730 C.ar      1 SUB1        0.000
     83 C44         8.1230    0.9320    9.1940 C.ar      1 SUB1        0.000
     84 C45         8.5720   -0.1250    9.9970 C.ar      1 SUB1        0.000
     85 C46         8.3570   -0.1110   11.3790 C.ar      1 SUB1        0.000
     86 C47         6.2000    0.1220   15.2830 C.3       1 SUB1        0.000
     87 O48         5.1250   -0.2650   17.3020 O.3       1 SUB1        0.000
     88 C49         4.9470   -0.4390   15.9060 C.3       1 SUB1        0.000
     89 N50         5.8120   -2.7360   16.1800 N.am      1 SUB1        0.000
     90 C51         4.7250   -1.9340   15.6160 C.3       1 SUB1        0.000
     91 C52         3.3720   -2.4220   16.1650 C.3       1 SUB1        0.000
     92 C53         3.1250   -3.9070   16.0270 C.ar      1 SUB1        0.000
     93 C54         3.3910   -4.7760   17.0980 C.ar      1 SUB1        0.000
     94 C55         3.1550   -6.1500   16.9550 C.ar      1 SUB1        0.000
     95 C56         2.6560   -6.6690   15.7520 C.ar      1 SUB1        0.000
     96 C57         2.3840   -5.8090   14.6860 C.ar      1 SUB1        0.000
     97 C58         2.6190   -4.4280   14.8220 C.ar      1 SUB1        0.000
     98 N81         7.0530   -5.8530   16.7090 N.am      1 SUB1        0.000
     99 C82         7.4760   -4.4810   16.3820 C.3       1 SUB1        0.000
    100 C83         6.4510   -3.7120   15.5290 C.2       1 SUB1        0.000
    101 O84         6.2670   -3.9610   14.3500 O.2       1 SUB1        0.000
    102 C85         8.8220   -4.4670   15.6440 C.3       1 SUB1        0.000
    103 C86         9.2900   -3.0270   15.3250 C.3       1 SUB1        0.000
    104 C87         9.9000   -5.1910   16.4690 C.3       1 SUB1        0.000
    105 C97         6.9290   -6.3640   17.9260 C.2       1 SUB1        0.000
    106 O98         7.2550   -5.7600   18.9360 O.2       1 SUB1        0.000
    107 N99         6.4020   -7.6110   17.9990 N.am      1 SUB1        0.000
    108 C2          6.0120   -8.3800   16.8120 C.3       1 SUB1        0.000
    109 C3          6.1420   -8.2340   19.2990 C.3       1 SUB1        0.000
    110 C8          4.8150   -7.8110   19.8750 C.ar      1 SUB1        0.000
    111 C12         3.7140   -8.6790   19.8170 C.ar      1 SUB1        0.000
    112 N10         4.7670   -6.5870   20.4230 N.ar      1 SUB1        0.000
    113 C13         2.5000   -8.2420   20.3570 C.ar      1 SUB1        0.000
    114 C14         3.5920   -6.1840   20.9340 C.ar      1 SUB1        0.000
    115 C15         2.4320   -6.9690   20.9320 C.ar      1 SUB1        0.000
@<TRIPOS>BOND
     1   62    1 1  
     2   62    2 1  
     3   62    3 1  
     4   63    4 1  
     5   63    5 1  
     6   65    6 1  
     7   67    7 1  
     8   68    8 1  
     9   69    9 1  
    10   70   10 1  
    11   71   11 1  
    12   74   12 1  
    13   75   13 1  
    14   75   14 1  
    15   75   15 1  
    16   76   16 1  
    17   76   17 1  
    18   76   18 1  
    19   77   19 1  
    20   78   20 1  
    21   79   21 1  
    22   79   22 1  
    23   81   23 1  
    24   82   24 1  
    25   83   25 1  
    26   84   26 1  
    27   85   27 1  
    28   86   28 1  
    29   86   29 1  
    30   87   30 1  
    31   88   31 1  
    32   89   32 1  
    33   90   33 1  
    34   91   34 1  
    35   91   35 1  
    36   93   36 1  
    37   94   37 1  
    38   95   38 1  
    39   96   39 1  
    40   97   40 1  
    41   98   41 1  
    42   99   42 1  
    43  102   43 1  
    44  103   44 1  
    45  103   45 1  
    46  103   46 1  
    47  104   47 1  
    48  104   48 1  
    49  104   49 1  
    50  108   50 1  
    51  108   51 1  
    52  108   52 1  
    53  109   53 1  
    54  109   54 1  
    55  111   55 1  
    56  113   56 1  
    57  114   57 1  
    58  115   58 1  
    59   59   60 2  
    60   59   61 am 
    61   59   70 am 
    62   61   62 1  
    63   61   63 1  
    64   63   64 1  
    65   64   65 ar 
    66   64   66 ar 
    67   65   67 ar 
    68   66   68 ar 
    69   67   69 ar 
    70   68   69 ar 
    71   70   71 1  
    72   71   72 1  
    73   71   74 1  
    74   72   73 2  
    75   72   77 am 
    76   74   75 1  
    77   74   76 1  
    78   77   78 1  
    79   78   79 1  
    80   78   86 1  
    81   79   80 1  
    82   80   81 ar 
    83   80   85 ar 
    84   81   82 ar 
    85   82   83 ar 
    86   83   84 ar 
    87   84   85 ar 
    88   86   88 1  
    89   88   90 1  
    90   90   91 1  
    91   91   92 1  
    92   92   93 ar 
    93   92   97 ar 
    94   93   94 ar 
    95   94   95 ar 
    96   95   96 ar 
    97   96   97 ar 
    98   99   98 1  
    99   98  105 am 
   100  100   99 1  
   101   99  102 1  
   102  100  101 2  
   103  102  103 1  
   104  102  104 1  
   105  105  106 2  
   106  105  107 am 
   107  107  108 1  
   108  107  109 1  
   109  109  110 1  
   110  110  111 ar 
   111  110  112 ar 
   112  111  113 ar 
   113  112  114 ar 
   114  113  115 ar 
   115  114  115 ar 
   116   89  100 am 
   117   90   89 1  
   118   88   87 1  
@<TRIPOS>SUBSTRUCTURE
     1 SUB1        1 GROUP

