### Name: 1l86_ligand
### Creating user name: arthur
### Creation time: Tue Nov 27 11:30:21 2001


@<TRIPOS>MOLECULE
1l86_ligand
   18    17     1     0     0
SMALL
USER_CHARGES


@<TRIPOS>ATOM
      1 H1         33.3678   -1.0246   16.4651 H         1 SUB1        0.000
      2 H2         31.2810   -0.6406   15.4658 H         1 SUB1        0.000
      3 H3         31.8889   -2.3052   15.1715 H         1 SUB1        0.000
      4 H4         32.2016    0.1261   13.3306 H         1 SUB1        0.000
      5 H5         31.2026   -1.3358   13.0278 H         1 SUB1        0.000
      6 H6         35.4905   -3.3353    8.1921 H         1 SUB1        0.000
      7 H7         34.5163   -3.4860   10.2851 H         1 SUB1        0.000
      8 H8         33.3965   -3.9507    8.9597 H         1 SUB1        0.000
      9 H9         32.1184   -2.4138   10.2305 H         1 SUB1        0.000
     10 H10        32.7726   -1.4068    8.8946 H         1 SUB1        0.000
     11 OB1        33.3570   -0.8630   15.5290 O.3       1 SUB1        0.000
     12 CB1        32.0760   -1.2360   14.9930 C.3       1 SUB1        0.000
     13 CB         32.1190   -0.9570   13.5040 C.3       1 SUB1        0.000
     14 SG         33.5510   -1.7930   12.8160 S.3       1 SUB1        0.000
     15 OB1        34.8990   -2.6370    8.4470 O.3       1 SUB1        0.000
     16 CB1        33.9770   -3.1250    9.3970 C.3       1 SUB1        0.000
     17 CB         33.0320   -1.9830    9.7950 C.3       1 SUB1        0.000
     18 SG         33.7890   -0.8630   11.0100 S.3       1 SUB1        0.000
@<TRIPOS>BOND
     1   11    1 1  
     2   12    2 1  
     3   12    3 1  
     4   13    4 1  
     5   13    5 1  
     6   15    6 1  
     7   16    7 1  
     8   16    8 1  
     9   17    9 1  
    10   17   10 1  
    11   11   12 1  
    12   12   13 1  
    13   13   14 1  
    14   15   16 1  
    15   16   17 1  
    16   17   18 1  
    17   18   14 1  
@<TRIPOS>SUBSTRUCTURE
     1 SUB1        1 GROUP

