### Name: 1l87_ligand
### Creating user name: arthur
### Creation time: Tue Nov 27 11:30:21 2001


@<TRIPOS>MOLECULE
1l87_ligand
   18    17     1     0     0
SMALL
USER_CHARGES


@<TRIPOS>ATOM
      1 H1         33.1529   -1.0700   16.5835 H         1 SUB1        0.000
      2 H2         31.1360   -0.6944   15.4534 H         1 SUB1        0.000
      3 H3         31.8072   -2.3307   15.1393 H         1 SUB1        0.000
      4 H4         32.1291    0.1815   13.4238 H         1 SUB1        0.000
      5 H5         31.3032   -1.3510   12.9810 H         1 SUB1        0.000
      6 H6         35.5250   -3.0346    8.1723 H         1 SUB1        0.000
      7 H7         34.4899   -3.6374   10.1444 H         1 SUB1        0.000
      8 H8         33.3892   -3.7093    8.7266 H         1 SUB1        0.000
      9 H9         32.2976   -2.5478   10.6107 H         1 SUB1        0.000
     10 H10        32.5734   -1.4205    9.2397 H         1 SUB1        0.000
     11 OB1        33.2040   -0.8710   15.6560 O.3       1 SUB1        0.000
     12 CB1        31.9790   -1.2510   15.0180 C.3       1 SUB1        0.000
     13 CB         32.1280   -0.9100   13.5600 C.3       1 SUB1        0.000
     14 SG         33.6950   -1.6010   13.0290 S.3       1 SUB1        0.000
     15 OB1        34.9590   -2.3890    8.5790 O.3       1 SUB1        0.000
     16 CB1        33.9880   -3.0440    9.3660 C.3       1 SUB1        0.000
     17 CB         33.0610   -2.0060   10.0330 C.3       1 SUB1        0.000
     18 SG         33.9060   -0.8530   11.1510 S.3       1 SUB1        0.000
@<TRIPOS>BOND
     1   11    1 1  
     2   12    2 1  
     3   12    3 1  
     4   13    4 1  
     5   13    5 1  
     6   15    6 1  
     7   16    7 1  
     8   16    8 1  
     9   17    9 1  
    10   17   10 1  
    11   11   12 1  
    12   12   13 1  
    13   13   14 1  
    14   15   16 1  
    15   16   17 1  
    16   17   18 1  
    17   18   14 1  
@<TRIPOS>SUBSTRUCTURE
     1 SUB1        1 GROUP

