### Name: 1ldm_ligand
### Creating user name: arthur
### Creation time: Tue Nov 27 11:30:21 2001


@<TRIPOS>MOLECULE
1ldm_ligand
   71    75     1     0     0
SMALL
USER_CHARGES


@<TRIPOS>ATOM
      1 AP          5.1340   28.0610    8.2500 P.3       1 SUB1        0.000
      2 AO1         4.8410   29.4150    7.8400 O.co2     1 SUB1       -0.500
      3 AO2         4.0620   27.2190    7.7080 O.co2     1 SUB1       -0.500
      4 AO5'        4.9180   28.1070    9.8310 O.3       1 SUB1        0.000
      5 AC5'        4.4610   26.8430   10.4720 C.3       1 SUB1        0.000
      6 AC4'        3.4340   26.9750   11.4960 C.3       1 SUB1        0.000
      7 AO4'        3.8680   26.9340   12.8590 O.3       1 SUB1        0.000
      8 AC3'        2.1760   27.8090   11.4320 C.3       1 SUB1        0.000
      9 AO3'        1.0090   26.9510   11.4520 O.3       1 SUB1        0.000
     10 AC2'        2.2310   28.5960   12.7520 C.3       1 SUB1        0.000
     11 AO2'        0.9400   29.0000   13.1850 O.3       1 SUB1        0.000
     12 AC1'        2.9100   27.5500   13.6460 C.3       1 SUB1        0.000
     13 AN9         3.3780   28.0260   14.9330 N.pl3     1 SUB1        0.000
     14 AC8         3.9760   29.2000   15.3110 C.2       1 SUB1        0.000
     15 AN7         4.1340   29.2980   16.6240 N.2       1 SUB1        0.000
     16 AC5         3.4590   28.2100   17.1430 C.2       1 SUB1        0.000
     17 AC6         3.2270   27.7540   18.4510 C.2       1 SUB1        0.000
     18 AN6         3.5910   28.3910   19.5580 N.pl3     1 SUB1        0.000
     19 AN1         2.6140   26.5310   18.5940 N.2       1 SUB1        0.000
     20 AC2         2.2960   25.8460   17.4730 C.2       1 SUB1        0.000
     21 AN3         2.4380   26.1800   16.2350 N.2       1 SUB1        0.000
     22 AC4         3.0020   27.3910   16.1260 C.2       1 SUB1        0.000
     23 O3          6.4900   27.3040    7.9750 O.3       1 SUB1        0.000
     24 NP          6.8950   25.9470    7.2680 P.3       1 SUB1        0.000
     25 NO1         7.2300   26.1560    5.8700 O.co2     1 SUB1       -0.500
     26 NO2         5.8380   24.9440    7.3730 O.co2     1 SUB1       -0.500
     27 NO5'        8.1700   25.4790    8.0960 O.3       1 SUB1        0.000
     28 NC5'        7.9510   25.1830    9.4910 C.3       1 SUB1        0.000
     29 NC4'        9.3380   24.8090    9.9950 C.3       1 SUB1        0.000
     30 NO4'        9.8080   23.6830    9.2160 O.3       1 SUB1        0.000
     31 NC3'       10.3410   25.9790    9.7390 C.3       1 SUB1        0.000
     32 NO3'       11.1810   25.9600   10.9010 O.3       1 SUB1        0.000
     33 NC2'       11.1620   25.4570    8.5660 C.3       1 SUB1        0.000
     34 NO2'       12.4800   26.0680    8.5660 O.3       1 SUB1        0.000
     35 NC1'       11.1550   23.9870    8.8480 C.3       1 SUB1        0.000
     36 NN1        11.5450   23.0670    7.8070 N.pl3     1 SUB1        0.000
     37 NC2        12.3990   22.0820    8.1790 C.2       1 SUB1        0.000
     38 NC3        12.8820   21.2180    7.2340 C.2       1 SUB1        0.000
     39 NC7        13.8480   20.0350    7.5710 C.2       1 SUB1        0.000
     40 NO7        14.1290   19.2420    6.6670 O.2       1 SUB1        0.000
     41 NN7        14.3420   20.0620    8.8170 N.am      1 SUB1        0.000
     42 NC4        12.4550   21.1960    5.8840 C.3       1 SUB1        0.000
     43 NC5        11.6130   22.2840    5.6010 C.2       1 SUB1        0.000
     44 NC6        11.0740   23.1640    6.4670 C.2       1 SUB1        0.000
     45 H1          5.3372   26.3660   10.9354 H         1 SUB1        0.000
     46 H2          4.0637   26.1902    9.6808 H         1 SUB1        0.000
     47 H3          2.9878   25.9760   11.3823 H         1 SUB1        0.000
     48 H4          2.1617   28.4685   10.5518 H         1 SUB1        0.000
     49 H5          0.2235   27.4838   11.4115 H         1 SUB1        0.000
     50 H6          2.8602   29.4932   12.6562 H         1 SUB1        0.000
     51 H7          1.0158   29.4815   14.0004 H         1 SUB1        0.000
     52 H8          2.1503   26.7899   13.8807 H         1 SUB1        0.000
     53 H9          4.2882   29.9705   14.6077 H         1 SUB1        0.000
     54 H10         3.3801   27.9830   20.4799 H         1 SUB1        0.000
     55 H11         4.0842   29.2930   19.4946 H         1 SUB1        0.000
     56 H12         1.8536   24.8650   17.6399 H         1 SUB1        0.000
     57 H13         7.2497   24.3439    9.6099 H         1 SUB1        0.000
     58 H14         7.5629   26.0636   10.0239 H         1 SUB1        0.000
     59 H15         9.3003   24.5599   11.0657 H         1 SUB1        0.000
     60 H16         9.8702   26.9554    9.5520 H         1 SUB1        0.000
     61 H17        11.8320   26.6485   10.8324 H         1 SUB1        0.000
     62 H18        10.6726   25.6689    7.6040 H         1 SUB1        0.000
     63 H19        12.9829   25.7360    7.8316 H         1 SUB1        0.000
     64 H20        11.8254   23.8105    9.7021 H         1 SUB1        0.000
     65 H21        12.6981   21.9792    9.2211 H         1 SUB1        0.000
     66 H22        14.9689   19.3451    9.1220 H         1 SUB1        0.000
     67 H23        14.0836   20.7991    9.4415 H         1 SUB1        0.000
     68 H24        11.9081   20.2604    5.6956 H         1 SUB1        0.000
     69 H25        13.3365   21.2441    5.2278 H         1 SUB1        0.000
     70 H26        11.3651   22.4349    4.5514 H         1 SUB1        0.000
     71 H27        10.3297   23.8986    6.1631 H         1 SUB1        0.000
@<TRIPOS>BOND
     1    1   23 1  
     2    1    4 1  
     3    1    3 ar 
     4    1    2 ar 
     5    4    5 1  
     6    5    6 1  
     7    6    8 1  
     8    6    7 1  
     9    7   12 1  
    10   12   13 1  
    11   12   10 1  
    12   10   11 1  
    13   10    8 1  
    14    8    9 1  
    15   13   22 1  
    16   13   14 1  
    17   14   15 2  
    18   15   16 1  
    19   16   22 2  
    20   16   17 1  
    21   17   19 2  
    22   17   18 1  
    23   19   20 1  
    24   20   21 2  
    25   21   22 1  
    26   23   24 1  
    27   24   27 1  
    28   24   26 ar 
    29   24   25 ar 
    30   27   28 1  
    31   28   29 1  
    32   29   31 1  
    33   29   30 1  
    34   30   35 1  
    35   35   36 1  
    36   35   33 1  
    37   33   34 1  
    38   33   31 1  
    39   31   32 1  
    40   36   44 1  
    41   36   37 1  
    42   37   38 2  
    43   38   42 1  
    44   38   39 1  
    45   39   41 am 
    46   39   40 2  
    47   42   43 1  
    48   43   44 2  
    49    5   45 1  
    50    5   46 1  
    51    6   47 1  
    52    8   48 1  
    53    9   49 1  
    54   10   50 1  
    55   11   51 1  
    56   12   52 1  
    57   14   53 1  
    58   18   54 1  
    59   18   55 1  
    60   20   56 1  
    61   28   57 1  
    62   28   58 1  
    63   29   59 1  
    64   31   60 1  
    65   32   61 1  
    66   33   62 1  
    67   34   63 1  
    68   35   64 1  
    69   37   65 1  
    70   41   66 1  
    71   41   67 1  
    72   42   68 1  
    73   42   69 1  
    74   43   70 1  
    75   44   71 1  
@<TRIPOS>SUBSTRUCTURE
     1 SUB1        1 GROUP

