### Name: 1lgr_ligand
### Creating user name: arthur
### Creation time: Tue Nov 27 11:30:29 2001


@<TRIPOS>MOLECULE
1lgr_ligand
   35    37     1     0     0
SMALL
USER_CHARGES


@<TRIPOS>ATOM
      1 H1        -89.4963   14.7182  -85.9108 H         1 SUB1        0.000
      2 H2        -90.9357   14.8554  -84.8450 H         1 SUB1        0.000
      3 H3        -89.4811   12.5420  -84.0221 H         1 SUB1        0.000
      4 H4        -89.7186   12.7368  -87.0743 H         1 SUB1        0.000
      5 H5        -87.8630   11.4509  -86.6506 H         1 SUB1        0.000
      6 H6        -90.4365   10.3906  -87.0540 H         1 SUB1        0.000
      7 H7        -90.3258    9.2088  -85.0700 H         1 SUB1        0.000
      8 H8        -92.1269   10.6009  -84.8720 H         1 SUB1        0.000
      9 H9        -91.6580   13.1123  -87.8348 H         1 SUB1        0.000
     10 H10       -97.4492   11.4833  -89.3859 H         1 SUB1        0.000
     11 H11       -96.0409   12.4875  -89.8228 H         1 SUB1        0.000
     12 H12       -96.2773    9.2329  -85.6640 H         1 SUB1        0.000
     13 PA        -89.1910   16.6080  -83.8880 P.3       1 SUB1        0.000
     14 O1A       -90.2010   17.0520  -82.8970 O.co2     1 SUB1       -0.500
     15 O2A       -87.8250   17.1610  -83.7010 O.co2     1 SUB1       -0.500
     16 O3A       -89.7040   16.9440  -85.3590 O.co2     1 SUB1       -0.500
     17 O5'       -89.1150   15.0130  -83.9200 O.3       1 SUB1        0.000
     18 C5'       -89.9230   14.4360  -84.9370 C.3       1 SUB1        0.000
     19 C4'       -90.0380   12.9110  -84.8960 C.3       1 SUB1        0.000
     20 O4'       -91.4480   12.5660  -84.7940 O.3       1 SUB1        0.000
     21 C3'       -89.5600   12.1800  -86.1390 C.3       1 SUB1        0.000
     22 O3'       -88.2290   11.9120  -85.9050 O.3       1 SUB1        0.000
     23 C2'       -90.3580   10.8840  -86.0740 C.3       1 SUB1        0.000
     24 O2'       -89.8160   10.0100  -85.0960 O.3       1 SUB1        0.000
     25 C1'       -91.7060   11.3720  -85.5340 C.3       1 SUB1        0.000
     26 N9        -92.6950   11.6810  -86.5910 N.pl3     1 SUB1        0.000
     27 C8        -92.5630   12.5370  -87.6450 C.2       1 SUB1        0.000
     28 N7        -93.6170   12.6020  -88.4010 N.2       1 SUB1        0.000
     29 C5        -94.5080   11.7230  -87.8090 C.2       1 SUB1        0.000
     30 C6        -95.8200   11.3300  -88.1290 C.2       1 SUB1        0.000
     31 N6        -96.4890   11.8040  -89.1960 N.pl3     1 SUB1        0.000
     32 N1        -96.4170   10.4390  -87.3220 N.2       1 SUB1        0.000
     33 C2        -95.7440    9.9630  -86.2710 C.2       1 SUB1        0.000
     34 N3        -94.5180   10.2560  -85.8650 N.2       1 SUB1        0.000
     35 C4        -93.9610   11.1530  -86.6930 C.2       1 SUB1        0.000
@<TRIPOS>BOND
     1   18    1 1  
     2   18    2 1  
     3   19    3 1  
     4   21    4 1  
     5   22    5 1  
     6   23    6 1  
     7   24    7 1  
     8   25    8 1  
     9   27    9 1  
    10   31   10 1  
    11   31   11 1  
    12   33   12 1  
    13   13   14 ar 
    14   13   15 ar 
    15   13   16 ar 
    16   13   17 1  
    17   17   18 1  
    18   18   19 1  
    19   19   20 1  
    20   19   21 1  
    21   20   25 1  
    22   21   22 1  
    23   21   23 1  
    24   23   24 1  
    25   23   25 1  
    26   25   26 1  
    27   26   27 1  
    28   26   35 1  
    29   27   28 2  
    30   28   29 1  
    31   29   30 1  
    32   29   35 2  
    33   30   31 1  
    34   30   32 2  
    35   32   33 1  
    36   33   34 2  
    37   34   35 1  
@<TRIPOS>SUBSTRUCTURE
     1 SUB1        1 GROUP

