### Name: 1lyb_ligand
### Creating user name: arthur
### Creation time: Tue Nov 27 11:30:21 2001


@<TRIPOS>MOLECULE
1lyb_ligand
  110   109     1     0     0
SMALL
USER_CHARGES


@<TRIPOS>ATOM
      1 HA         20.4534   91.5200    6.0131 H         1 SUB1        0.000
      2 HB         21.0141   88.6683    6.7723 H         1 SUB1        0.000
      3 HG13       20.9921   89.6156    9.0506 H         1 SUB1        0.000
      4 HG12       19.5130   88.6487    8.7282 H         1 SUB1        0.000
      5 HG11       19.4377   90.4430    8.6956 H         1 SUB1        0.000
      6 HG23       18.4940   90.3686    6.3527 H         1 SUB1        0.000
      7 HG22       18.5350   88.5767    6.4707 H         1 SUB1        0.000
      8 HG21       19.3434   89.4050    5.0970 H         1 SUB1        0.000
      9 HA         22.2237   93.1779    9.6663 H         1 SUB1        0.000
     10 HB         24.0024   94.2429    8.5964 H         1 SUB1        0.000
     11 HG13       23.1542   93.9258    6.3246 H         1 SUB1        0.000
     12 HG12       23.8149   95.5826    6.5366 H         1 SUB1        0.000
     13 HG11       22.0383   95.3179    6.5329 H         1 SUB1        0.000
     14 HG23       21.9260   96.4874    8.7873 H         1 SUB1        0.000
     15 HG22       23.7080   96.7055    8.7298 H         1 SUB1        0.000
     16 HG21       22.9496   95.8742   10.1299 H         1 SUB1        0.000
     17 HA         17.0784   99.4014   10.7135 H         1 SUB1        0.000
     18 HB3        16.6573  100.1710   13.6398 H         1 SUB1        0.000
     19 HB2        15.6595   99.0024   12.7095 H         1 SUB1        0.000
     20 HB1        15.6818  100.7365   12.2415 H         1 SUB1        0.000
     21 H1         24.0001   90.2311    3.7926 H         1 SUB1        0.000
     22 H2         25.1700   89.7994    5.0855 H         1 SUB1        0.000
     23 H3         23.5032   87.5653    4.0086 H         1 SUB1        0.000
     24 H4         24.9627   87.4142    1.9880 H         1 SUB1        0.000
     25 H5         25.7319   88.9733    2.4399 H         1 SUB1        0.000
     26 H6         23.9929   88.9262    1.9920 H         1 SUB1        0.000
     27 H7         25.2991   87.1666    5.6664 H         1 SUB1        0.000
     28 H8         26.4952   87.9157    4.5553 H         1 SUB1        0.000
     29 H9         25.6798   86.3826    4.0958 H         1 SUB1        0.000
     30 H10        18.5095   95.4617    9.9498 H         1 SUB1        0.000
     31 H11        16.9689   93.9587   10.9082 H         1 SUB1        0.000
     32 H12        18.2890   92.9644   11.6122 H         1 SUB1        0.000
     33 H13        18.7868   92.2793    9.1795 H         1 SUB1        0.000
     34 H14        17.0437   90.5227    9.4232 H         1 SUB1        0.000
     35 H15        16.2064   91.5388   10.6451 H         1 SUB1        0.000
     36 H16        17.8441   90.8862   10.9896 H         1 SUB1        0.000
     37 H17        17.3191   93.8873    8.0444 H         1 SUB1        0.000
     38 H18        15.9045   93.2156    8.9242 H         1 SUB1        0.000
     39 H19        16.7997   92.1933    7.7494 H         1 SUB1        0.000
     40 H20        18.0621   95.5780   12.4788 H         1 SUB1        0.000
     41 H21        20.7927   96.5907   11.5450 H         1 SUB1        0.000
     42 H22        20.0467   96.9872   13.1302 H         1 SUB1        0.000
     43 H23        20.1722  102.5886   11.2061 H         1 SUB1        0.000
     44 H24        21.7057  102.0498    9.0700 H         1 SUB1        0.000
     45 H25        20.9828  100.4272    9.3370 H         1 SUB1        0.000
     46 H26        23.2694  101.7290   10.5938 H         1 SUB1        0.000
     47 H27        22.9994  100.6405   12.7785 H         1 SUB1        0.000
     48 H28        21.3246  100.1563   12.3461 H         1 SUB1        0.000
     49 H29        21.7369  101.8945   12.5339 H         1 SUB1        0.000
     50 H30        23.2058   99.6502    9.1988 H         1 SUB1        0.000
     51 H31        22.1378   98.8760   10.4181 H         1 SUB1        0.000
     52 H32        23.8250   99.3148   10.8513 H         1 SUB1        0.000
     53 H33        19.7819  104.0337    9.4658 H         1 SUB1        0.000
     54 H34        17.4649  102.2412    9.6344 H         1 SUB1        0.000
     55 H35        17.7032  102.8366    7.9564 H         1 SUB1        0.000
     56 CA         24.2380   89.5030    4.5820 C.3       1 SUB1        0.000
     57 CB         24.4390   88.1400    3.9450 C.3       1 SUB1        0.000
     58 CG1        24.8070   88.3800    2.4910 C.3       1 SUB1        0.000
     59 CG2        25.5560   87.3460    4.6120 C.3       1 SUB1        0.000
     60 C          23.1110   89.5010    5.6010 C.2       1 SUB1        0.000
     61 O          23.0250   88.5750    6.3950 O.2       1 SUB1        0.000
     62 N          22.2600   90.5380    5.5580 N.am      1 SUB1        0.000
     63 CA         21.1750   90.8440    6.4950 C.3       1 SUB1        0.000
     64 C          21.8540   91.5580    7.6520 C.2       1 SUB1        0.000
     65 O          22.7770   91.0870    8.3380 O.2       1 SUB1        0.000
     66 CB         20.3940   89.5530    6.9790 C.3       1 SUB1        0.000
     67 CG1        20.0610   89.5660    8.4670 C.3       1 SUB1        0.000
     68 CG2        19.1010   89.4700    6.1680 C.3       1 SUB1        0.000
     69 H          22.4640   91.2080    4.8820 H         1 SUB1        0.000
     70 N          21.4680   92.8200    7.7310 N.am      1 SUB1        0.000
     71 CA         21.8940   93.7270    8.7720 C.3       1 SUB1        0.000
     72 C          20.6120   94.4610    9.0210 C.2       1 SUB1        0.000
     73 O          20.0380   95.1210    8.1510 O.2       1 SUB1        0.000
     74 CB         23.0360   94.6910    8.3220 C.3       1 SUB1        0.000
     75 CG1        23.0090   94.8930    6.8280 C.3       1 SUB1        0.000
     76 CG2        22.8950   96.0340    9.0430 C.3       1 SUB1        0.000
     77 H          20.7820   93.1610    7.1220 H         1 SUB1        0.000
     78 N          20.1640   94.2290   10.2360 N.am      1 SUB1        0.000
     79 CA         18.8970   94.7300   10.6740 C.3       1 SUB1        0.000
     80 CB         17.9720   93.5430   10.7320 C.3       1 SUB1        0.000
     81 CG         17.8000   92.5160    9.6040 C.3       1 SUB1        0.000
     82 CD1        17.1820   91.2830   10.2060 C.3       1 SUB1        0.000
     83 CD2        16.8960   92.9840    8.5080 C.3       1 SUB1        0.000
     84 CH         19.0580   95.4210   12.0390 C.3       1 SUB1        0.000
     85 OH         19.8530   94.5500   12.8240 O.3       1 SUB1        0.000
     86 CM         19.8420   96.7200   12.0830 C.3       1 SUB1        0.000
     87 C          19.0400   97.8300   11.4280 C.2       1 SUB1        0.000
     88 O          19.1230   98.0330   10.2100 O.2       1 SUB1        0.000
     89 H          20.4350   93.3840   10.6520 H         1 SUB1        0.000
     90 HH         20.7470   94.4870   12.4610 H         1 SUB1        0.000
     91 N          18.2580   98.5550   12.2190 N.am      1 SUB1        0.000
     92 CA         17.4480   99.6430   11.7210 C.3       1 SUB1        0.000
     93 C          18.3100  100.8820   11.6790 C.2       1 SUB1        0.000
     94 O          18.3520  101.6860   12.6110 O.2       1 SUB1        0.000
     95 CB         16.2830   99.9060   12.6400 C.3       1 SUB1        0.000
     96 H          18.3130   98.4590   13.1930 H         1 SUB1        0.000
     97 N          19.0660  100.9390   10.5800 N.am      1 SUB1        0.000
     98 CA         19.9820  102.0230   10.2820 C.3       1 SUB1        0.000
     99 CB         21.2870  101.3660    9.8230 C.3       1 SUB1        0.000
    100 CG         22.4660  100.9890   10.7240 C.3       1 SUB1        0.000
    101 CD1        22.1070  100.9150   12.1970 C.3       1 SUB1        0.000
    102 CD2        22.9420   99.6110   10.2660 C.3       1 SUB1        0.000
    103 CH         19.4300  103.0190    9.2280 C.3       1 SUB1        0.000
    104 OH         19.9530  102.5490    7.9800 O.3       1 SUB1        0.000
    105 CM         17.8990  103.0430    9.0190 C.3       1 SUB1        0.000
    106 C          17.1810  104.3480    9.3800 C.2       1 SUB1        0.000
    107 O          16.7940  104.5420   10.5450 O.co2     1 SUB1       -0.500
    108 OXT        16.9310  105.1430    8.4590 O.co2     1 SUB1       -0.500
    109 H          18.9480  100.2250    9.9260 H         1 SUB1        0.000
    110 HH         20.7340  103.0660    7.7820 H         1 SUB1        0.000
@<TRIPOS>BOND
     1   63    1 1  
     2   66    2 1  
     3   67    3 1  
     4   67    4 1  
     5   67    5 1  
     6   68    6 1  
     7   68    7 1  
     8   68    8 1  
     9   71    9 1  
    10   74   10 1  
    11   75   11 1  
    12   75   12 1  
    13   75   13 1  
    14   76   14 1  
    15   76   15 1  
    16   76   16 1  
    17   92   17 1  
    18   95   18 1  
    19   95   19 1  
    20   95   20 1  
    21   56   21 1  
    22   56   22 1  
    23   57   23 1  
    24   58   24 1  
    25   58   25 1  
    26   58   26 1  
    27   59   27 1  
    28   59   28 1  
    29   59   29 1  
    30   79   30 1  
    31   80   31 1  
    32   80   32 1  
    33   81   33 1  
    34   82   34 1  
    35   82   35 1  
    36   82   36 1  
    37   83   37 1  
    38   83   38 1  
    39   83   39 1  
    40   84   40 1  
    41   86   41 1  
    42   86   42 1  
    43   98   43 1  
    44   99   44 1  
    45   99   45 1  
    46  100   46 1  
    47  101   47 1  
    48  101   48 1  
    49  101   49 1  
    50  102   50 1  
    51  102   51 1  
    52  102   52 1  
    53  103   53 1  
    54  105   54 1  
    55  105   55 1  
    56   63   62 1  
    57   63   66 1  
    58   63   64 1  
    59   64   65 2  
    60   66   68 1  
    61   66   67 1  
    62   62   69 1  
    63   71   70 1  
    64   71   74 1  
    65   71   72 1  
    66   72   73 2  
    67   74   76 1  
    68   74   75 1  
    69   70   77 1  
    70   64   70 am 
    71   92   91 1  
    72   92   95 1  
    73   92   93 1  
    74   93   94 2  
    75   91   96 1  
    76   56   57 1  
    77   56   60 1  
    78   57   58 1  
    79   57   59 1  
    80   60   61 2  
    81   60   62 am 
    82   72   78 am 
    83   79   78 1  
    84   78   89 1  
    85   79   80 1  
    86   79   84 1  
    87   80   81 1  
    88   81   82 1  
    89   81   83 1  
    90   84   85 1  
    91   84   86 1  
    92   85   90 1  
    93   86   87 1  
    94   87   88 2  
    95   87   91 am 
    96   93   97 am 
    97   98   97 1  
    98   97  109 1  
    99   98   99 1  
   100   98  103 1  
   101   99  100 1  
   102  100  101 1  
   103  100  102 1  
   104  103  104 1  
   105  103  105 1  
   106  104  110 1  
   107  105  106 1  
   108  106  107 ar 
   109  106  108 ar 
@<TRIPOS>SUBSTRUCTURE
     1 SUB1        1 GROUP

