### Name: 1mcb_ligand
### Creating user name: arthur
### Creation time: Tue Nov 27 11:30:29 2001


@<TRIPOS>MOLECULE
1mcb_ligand
   75    77     1     0     0
SMALL
USER_CHARGES


@<TRIPOS>ATOM
      1 H          27.6135  -22.8125   90.6127 H         1 SUB1        0.000
      2 HA         27.0458  -25.1175   92.2119 H         1 SUB1        0.000
      3 HB2        24.7375  -24.6934   91.6899 H         1 SUB1        0.000
      4 HB1        25.1904  -23.6772   90.2796 H         1 SUB1        0.000
      5 HG2        25.9562  -21.8957   91.6868 H         1 SUB1        0.000
      6 HG1        25.9419  -22.9397   93.1483 H         1 SUB1        0.000
      7 HE21       24.2809  -22.1731   94.3690 H         1 SUB1        0.000
      8 HE22       22.6485  -21.9388   93.8394 H         1 SUB1        0.000
      9 H          28.6853  -26.1625   90.4418 H         1 SUB1        0.000
     10 HA         27.2891  -28.1820   88.9126 H         1 SUB1        0.000
     11 HB2        29.4429  -28.6898   89.4796 H         1 SUB1        0.000
     12 HB1        30.0694  -27.0950   88.9406 H         1 SUB1        0.000
     13 HD1        28.1028  -29.7566   87.1669 H         1 SUB1        0.000
     14 HD2        31.6671  -27.4142   87.3912 H         1 SUB1        0.000
     15 HE1        28.8583  -30.7083   85.0205 H         1 SUB1        0.000
     16 HE2        32.4199  -28.3005   85.2279 H         1 SUB1        0.000
     17 HZ         31.0265  -29.9768   84.0439 H         1 SUB1        0.000
     18 H          25.9401  -27.7102   87.2905 H         1 SUB1        0.000
     19 HA         24.6113  -26.1876   86.0280 H         1 SUB1        0.000
     20 HB2        25.5540  -23.6939   86.0673 H         1 SUB1        0.000
     21 HB1        26.4944  -24.3276   87.4604 H         1 SUB1        0.000
     22 HD2        24.2114  -22.1638   88.1322 H         1 SUB1        0.000
     23 HE1        21.8801  -25.4608   89.4523 H         1 SUB1        0.000
     24 HA         28.3594  -27.4082   84.4028 H         1 SUB1        0.000
     25 HB2        28.3994  -28.5355   82.0655 H         1 SUB1        0.000
     26 HB1        28.4636  -26.7433   82.1674 H         1 SUB1        0.000
     27 HG1        26.5913  -27.1281   80.7101 H         1 SUB1        0.000
     28 HG2        26.0317  -28.5400   81.6692 H         1 SUB1        0.000
     29 HD1        25.8998  -25.6167   82.2828 H         1 SUB1        0.000
     30 HD2        24.6744  -26.9068   82.5292 H         1 SUB1        0.000
     31 H1         29.5648  -22.0544   90.3600 H         1 SUB1        0.000
     32 H2         30.7382  -23.2955   89.8037 H         1 SUB1        0.000
     33 H3         30.7670  -22.7328   91.5093 H         1 SUB1        0.000
     34 H4         22.1597  -22.9245   89.5585 H         1 SUB1        0.000
     35 C          29.1480  -24.0460   91.0240 C.2       1 SUB1        0.000
     36 O          29.5070  -25.1800   91.3920 O.2       1 SUB1        0.000
     37 CH3        30.1200  -22.9590   90.6490 C.3       1 SUB1        0.000
     38 N          27.8650  -23.7310   90.9180 N.am      1 SUB1        0.000
     39 CA         26.8240  -24.6740   91.2300 C.3       1 SUB1        0.000
     40 C          26.7390  -25.7990   90.1950 C.2       1 SUB1        0.000
     41 O          25.6130  -26.1410   89.7620 O.2       1 SUB1        0.000
     42 CB         25.4750  -23.9770   91.2990 C.3       1 SUB1        0.000
     43 CG         25.4500  -22.7350   92.1860 C.3       1 SUB1        0.000
     44 CD         23.9660  -22.4150   92.4000 C.2       1 SUB1        0.000
     45 OE1        23.2410  -22.5010   91.4110 O.2       1 SUB1        0.000
     46 NE2        23.6030  -22.1550   93.6340 N.am      1 SUB1        0.000
     47 N          27.8740  -26.3770   89.8980 N.am      1 SUB1        0.000
     48 CA         27.9930  -27.3490   88.7690 C.3       1 SUB1        0.000
     49 C          27.5840  -26.5480   87.5290 C.2       1 SUB1        0.000
     50 O          28.2950  -25.6510   87.0900 O.2       1 SUB1        0.000
     51 CB         29.3730  -27.9130   88.7040 C.3       1 SUB1        0.000
     52 CG         29.8320  -28.5250   87.4270 C.ar      1 SUB1        0.000
     53 CD1        29.0530  -29.4470   86.7470 C.ar      1 SUB1        0.000
     54 CD2        31.0480  -28.1310   86.8640 C.ar      1 SUB1        0.000
     55 CE1        29.4710  -29.9790   85.5380 C.ar      1 SUB1        0.000
     56 CE2        31.4800  -28.6310   85.6550 C.ar      1 SUB1        0.000
     57 CZ         30.6930  -29.5660   84.9900 C.ar      1 SUB1        0.000
     58 N          26.3700  -26.8370   87.0610 N.am      1 SUB1        0.000
     59 CA         25.6450  -25.8460   86.1850 C.3       1 SUB1        0.000
     60 C          26.3630  -25.8460   84.8580 C.2       1 SUB1        0.000
     61 O          26.6200  -24.7940   84.2610 O.2       1 SUB1        0.000
     62 CB         25.5890  -24.4650   86.8510 C.3       1 SUB1        0.000
     63 CG         24.3780  -24.3140   87.7370 C.2       1 SUB1        0.000
     64 ND1        23.6180  -25.3570   88.1850 N.2       1 SUB1        0.000
     65 CD2        23.8470  -23.1800   88.2750 C.2       1 SUB1        0.000
     66 CE1        22.6500  -24.8710   88.9570 C.2       1 SUB1        0.000
     67 NE2        22.7730  -23.5580   89.0260 N.pl3     1 SUB1        0.000
     68 N          26.2550  -26.8860   83.9510 N.am      1 SUB1        0.000
     69 CA         27.5150  -27.7000   83.7610 C.3       1 SUB1        0.000
     70 C          26.8560  -29.0970   84.1550 C.2       1 SUB1        0.000
     71 O          25.6510  -28.9810   84.5700 O.co2     1 SUB1       -0.500
     72 CB         27.8560  -27.6340   82.3850 C.3       1 SUB1        0.000
     73 CG         26.5040  -27.5480   81.7230 C.3       1 SUB1        0.000
     74 CD         25.7460  -26.6640   82.5820 C.3       1 SUB1        0.000
     75 OXT        27.2930  -30.1500   83.9300 O.co2     1 SUB1       -0.500
@<TRIPOS>BOND
     1   38    1 1  
     2   39    2 1  
     3   42    3 1  
     4   42    4 1  
     5   43    5 1  
     6   43    6 1  
     7   46    7 1  
     8   46    8 1  
     9   47    9 1  
    10   48   10 1  
    11   51   11 1  
    12   51   12 1  
    13   53   13 1  
    14   54   14 1  
    15   55   15 1  
    16   56   16 1  
    17   57   17 1  
    18   58   18 1  
    19   59   19 1  
    20   62   20 1  
    21   62   21 1  
    22   65   22 1  
    23   66   23 1  
    24   69   24 1  
    25   72   25 1  
    26   72   26 1  
    27   73   27 1  
    28   73   28 1  
    29   74   29 1  
    30   74   30 1  
    31   37   31 1  
    32   37   32 1  
    33   37   33 1  
    34   67   34 1  
    35   36   35 2  
    36   35   37 1  
    37   39   38 1  
    38   39   42 1  
    39   39   40 1  
    40   40   41 2  
    41   42   43 1  
    42   43   44 1  
    43   44   46 am 
    44   44   45 2  
    45   35   38 am 
    46   48   47 1  
    47   48   51 1  
    48   48   49 1  
    49   49   50 2  
    50   51   52 1  
    51   52   53 ar 
    52   52   54 ar 
    53   54   56 ar 
    54   56   57 ar 
    55   57   55 ar 
    56   55   53 ar 
    57   40   47 am 
    58   59   58 1  
    59   59   62 1  
    60   59   60 1  
    61   60   61 2  
    62   62   63 1  
    63   63   64 1  
    64   63   65 2  
    65   65   67 1  
    66   67   66 1  
    67   66   64 2  
    68   49   58 am 
    69   69   70 1  
    70   69   72 1  
    71   69   68 1  
    72   68   74 1  
    73   74   73 1  
    74   73   72 1  
    75   70   75 ar 
    76   70   71 ar 
    77   60   68 am 
@<TRIPOS>SUBSTRUCTURE
     1 SUB1        1 GROUP

