### Name: 1mcj_ligand
### Creating user name: arthur
### Creation time: Tue Nov 27 11:30:29 2001


@<TRIPOS>MOLECULE
1mcj_ligand
   60    62     1     0     0
SMALL
USER_CHARGES


@<TRIPOS>ATOM
      1 H          28.7193  -22.0860   88.8138 H         1 SUB1        0.000
      2 HA         29.5687  -24.1707   90.5877 H         1 SUB1        0.000
      3 HB2        29.7382  -24.7072   87.7440 H         1 SUB1        0.000
      4 HB1        28.4914  -25.7387   88.5238 H         1 SUB1        0.000
      5 HD1        32.0877  -24.8529   88.5837 H         1 SUB1        0.000
      6 HD2        29.0693  -27.7267   89.4816 H         1 SUB1        0.000
      7 HE1        33.8453  -26.4703   89.1353 H         1 SUB1        0.000
      8 HE2        30.8132  -29.3772   90.0639 H         1 SUB1        0.000
      9 HZ         33.2091  -28.7590   89.8420 H         1 SUB1        0.000
     10 H          27.6902  -26.1071   89.5936 H         1 SUB1        0.000
     11 HA         25.3975  -26.5990   89.5702 H         1 SUB1        0.000
     12 HB2        24.9553  -23.9874   90.2039 H         1 SUB1        0.000
     13 HB1        23.7142  -25.2156   89.7826 H         1 SUB1        0.000
     14 HD1        25.9177  -22.6843   87.8837 H         1 SUB1        0.000
     15 HD2        22.0707  -24.3851   87.8279 H         1 SUB1        0.000
     16 HE1        24.6181  -21.5180   86.0154 H         1 SUB1        0.000
     17 HA         25.0373  -26.2693   85.0805 H         1 SUB1        0.000
     18 HB2        24.0320  -28.8789   84.8722 H         1 SUB1        0.000
     19 HB1        23.1301  -27.3265   84.8156 H         1 SUB1        0.000
     20 HG1        22.4306  -27.5236   86.9652 H         1 SUB1        0.000
     21 HG2        22.8486  -29.2594   86.7686 H         1 SUB1        0.000
     22 HD1        23.9727  -27.8490   88.6840 H         1 SUB1        0.000
     23 HD2        24.9709  -28.9743   87.7022 H         1 SUB1        0.000
     24 H1         29.9722  -20.6303   87.9400 H         1 SUB1        0.000
     25 H2         31.4916  -21.2482   87.2077 H         1 SUB1        0.000
     26 H3         31.5288  -20.4559   88.8194 H         1 SUB1        0.000
     27 H4         28.2202  -27.8079   84.6299 H         1 SUB1        0.000
     28 H5         27.3677  -26.3126   84.8232 H         1 SUB1        0.000
     29 C          30.7200  -22.4310   88.8080 C.2       1 SUB1        0.000
     30 O          31.6710  -23.1530   89.1410 O.2       1 SUB1        0.000
     31 CH3        30.9430  -21.1030   88.1500 C.3       1 SUB1        0.000
     32 N          29.4360  -22.7460   89.0390 N.am      1 SUB1        0.000
     33 CA         29.0670  -24.0440   89.6170 C.3       1 SUB1        0.000
     34 C          27.5310  -24.1340   89.7750 C.2       1 SUB1        0.000
     35 O          26.8200  -23.1950   90.1350 O.2       1 SUB1        0.000
     36 CB         29.4190  -25.1710   88.6890 C.3       1 SUB1        0.000
     37 CG         30.4570  -26.1610   89.0390 C.ar      1 SUB1        0.000
     38 CD1        31.8090  -25.8450   88.9200 C.ar      1 SUB1        0.000
     39 CD2        30.1150  -27.4470   89.4230 C.ar      1 SUB1        0.000
     40 CE1        32.8010  -26.7500   89.2150 C.ar      1 SUB1        0.000
     41 CE2        31.0920  -28.3830   89.7340 C.ar      1 SUB1        0.000
     42 CZ         32.4400  -28.0290   89.6170 C.ar      1 SUB1        0.000
     43 N          27.0560  -25.3390   89.5050 N.am      1 SUB1        0.000
     44 CA         25.6830  -25.6530   89.0870 C.3       1 SUB1        0.000
     45 C          25.7790  -25.8740   87.5440 C.2       1 SUB1        0.000
     46 O          26.5080  -25.1440   86.8750 O.2       1 SUB1        0.000
     47 CB         24.5850  -24.6550   89.4120 C.3       1 SUB1        0.000
     48 CG         24.1340  -23.8040   88.2600 C.2       1 SUB1        0.000
     49 ND1        24.9380  -22.8870   87.6390 N.pl3     1 SUB1        0.000
     50 CD2        22.9430  -23.7710   87.6090 C.2       1 SUB1        0.000
     51 CE1        24.2480  -22.3040   86.6720 C.2       1 SUB1        0.000
     52 NE2        23.0410  -22.8290   86.6330 N.2       1 SUB1        0.000
     53 N          25.0620  -26.9500   87.1180 N.am      1 SUB1        0.000
     54 CA         25.0590  -27.2150   85.6420 C.3       1 SUB1        0.000
     55 C          26.3260  -27.9670   85.2670 C.2       1 SUB1        0.000
     56 O          26.4210  -29.1960   85.3130 O.2       1 SUB1        0.000
     57 CB         23.8240  -27.9410   85.4080 C.3       1 SUB1        0.000
     58 CG         23.2400  -28.2320   86.7350 C.3       1 SUB1        0.000
     59 CD         24.3410  -28.0730   87.6720 C.3       1 SUB1        0.000
     60 N          27.3880  -27.3110   84.8760 N.am      1 SUB1        0.000
@<TRIPOS>BOND
     1   32    1 1  
     2   33    2 1  
     3   36    3 1  
     4   36    4 1  
     5   38    5 1  
     6   39    6 1  
     7   40    7 1  
     8   41    8 1  
     9   42    9 1  
    10   43   10 1  
    11   44   11 1  
    12   47   12 1  
    13   47   13 1  
    14   49   14 1  
    15   50   15 1  
    16   51   16 1  
    17   54   17 1  
    18   57   18 1  
    19   57   19 1  
    20   58   20 1  
    21   58   21 1  
    22   59   22 1  
    23   59   23 1  
    24   31   24 1  
    25   31   25 1  
    26   31   26 1  
    27   60   27 1  
    28   60   28 1  
    29   30   29 2  
    30   29   31 1  
    31   33   32 1  
    32   33   36 1  
    33   33   34 1  
    34   34   35 2  
    35   36   37 1  
    36   37   38 ar 
    37   37   39 ar 
    38   39   41 ar 
    39   41   42 ar 
    40   42   40 ar 
    41   40   38 ar 
    42   29   32 am 
    43   44   43 1  
    44   44   47 1  
    45   44   45 1  
    46   45   46 2  
    47   47   48 1  
    48   48   49 1  
    49   48   50 2  
    50   50   52 1  
    51   52   51 2  
    52   51   49 1  
    53   34   43 am 
    54   54   55 1  
    55   54   57 1  
    56   54   53 1  
    57   53   59 1  
    58   59   58 1  
    59   58   57 1  
    60   55   56 2  
    61   45   53 am 
    62   55   60 am 
@<TRIPOS>SUBSTRUCTURE
     1 SUB1        1 GROUP

