### Name: 1mdq_ligand
### Creating user name: arthur
### Creation time: Tue Nov 27 11:30:21 2001


@<TRIPOS>MOLECULE
1mdq_ligand
   45    46     1     0     0
SMALL
USER_CHARGES


@<TRIPOS>ATOM
      1 C1         11.0550   14.9380   40.5060 C.3       1 SUB1        0.000
      2 C2         10.4380   15.4380   41.7980 C.3       1 SUB1        0.000
      3 C3         10.0740   16.9050   41.7110 C.3       1 SUB1        0.000
      4 C4         11.2710   17.7390   41.2580 C.3       1 SUB1        0.000
      5 C5         11.8540   17.1380   40.0070 C.3       1 SUB1        0.000
      6 C6         13.1590   17.7710   39.6360 C.3       1 SUB1        0.000
      7 O1         10.0210   15.0180   39.5340 O.3       1 SUB1        0.000
      8 O2          9.3040   14.6470   42.1070 O.3       1 SUB1        0.000
      9 O3          9.6250   17.4160   42.9530 O.3       1 SUB1        0.000
     10 O4         10.9220   19.0690   40.9590 O.3       1 SUB1        0.000
     11 O5         12.1280   15.7620   40.1430 O.3       1 SUB1        0.000
     12 O6         13.4290   17.5090   38.2480 O.3       1 SUB1        0.000
     13 C1'         7.5930   13.0280   37.2000 C.3       1 SUB1        0.000
     14 C2'         8.1730   12.1280   38.3010 C.3       1 SUB1        0.000
     15 C3'         8.6940   13.1100   39.2690 C.3       1 SUB1        0.000
     16 C4'         9.8550   13.8870   38.6810 C.3       1 SUB1        0.000
     17 C5'         9.5410   14.4100   37.2690 C.3       1 SUB1        0.000
     18 C6'        10.7780   14.9140   36.5960 C.3       1 SUB1        0.000
     19 O1'         7.7380   12.2480   36.1790 O.3       1 SUB1        0.000
     20 O2'         7.1650   11.2890   38.7700 O.3       1 SUB1        0.000
     21 O3'         9.0660   12.4220   40.4550 O.3       1 SUB1        0.000
     22 O5'         9.1100   13.3240   36.4470 O.3       1 SUB1        0.000
     23 O6'        10.4440   15.8540   35.6320 O.3       1 SUB1        0.000
     24 ****       11.4033   13.9005   40.6167 H         1 SUB1        0.000
     25 ****       11.1766   15.3185   42.6043 H         1 SUB1        0.000
     26 ****        9.2654   17.0132   40.9732 H         1 SUB1        0.000
     27 ****       12.0256   17.7362   42.0584 H         1 SUB1        0.000
     28 ****       11.1315   17.2852   39.1907 H         1 SUB1        0.000
     29 ****       13.9636   17.3468   40.2546 H         1 SUB1        0.000
     30 ****       13.1025   18.8569   39.8020 H         1 SUB1        0.000
     31 ****        9.5591   13.7332   42.1556 H         1 SUB1        0.000
     32 ****        8.8791   16.9097   43.2527 H         1 SUB1        0.000
     33 ****       10.5493   19.4796   41.7303 H         1 SUB1        0.000
     34 ****       14.2563   17.9081   38.0055 H         1 SUB1        0.000
     35 ****        6.7684   13.7309   37.3897 H         1 SUB1        0.000
     36 ****        8.9968   11.5076   37.9184 H         1 SUB1        0.000
     37 ****        7.8939   13.8239   39.5142 H         1 SUB1        0.000
     38 ****       10.7621   13.2652   38.6589 H         1 SUB1        0.000
     39 ****        8.7750   15.1975   37.3231 H         1 SUB1        0.000
     40 ****       11.3015   14.0727   36.1184 H         1 SUB1        0.000
     41 ****       11.4367   15.3783   37.3447 H         1 SUB1        0.000
     42 ****        7.4129   12.6830   35.3995 H         1 SUB1        0.000
     43 ****        6.8981   10.6966   38.0769 H         1 SUB1        0.000
     44 ****        8.3161   11.9477   40.7944 H         1 SUB1        0.000
     45 ****       11.2345   16.1689   35.2095 H         1 SUB1        0.000
@<TRIPOS>BOND
     1    1    2 1  
     2    1    7 1  
     3    1   11 1  
     4    2    3 1  
     5    2    8 1  
     6    3    4 1  
     7    3    9 1  
     8    4    5 1  
     9    4   10 1  
    10    5    6 1  
    11    5   11 1  
    12    6   12 1  
    13    7   16 1  
    14   14   13 1  
    15   15   14 1  
    16   16   15 1  
    17   15   21 1  
    18   16   17 1  
    19   17   18 1  
    20   17   22 1  
    21   18   23 1  
    22   13   19 1  
    23   14   20 1  
    24   22   13 1  
    25    1   24 1  
    26    2   25 1  
    27    3   26 1  
    28    4   27 1  
    29    5   28 1  
    30    6   29 1  
    31    6   30 1  
    32    8   31 1  
    33    9   32 1  
    34   10   33 1  
    35   12   34 1  
    36   13   35 1  
    37   14   36 1  
    38   15   37 1  
    39   16   38 1  
    40   17   39 1  
    41   18   40 1  
    42   18   41 1  
    43   19   42 1  
    44   20   43 1  
    45   21   44 1  
    46   23   45 1  
@<TRIPOS>SUBSTRUCTURE
     1 SUB1        1 GROUP

