### Name: 1nnb_ligand
### Creating user name: arthur
### Creation time: Tue Nov 27 11:30:29 2001


@<TRIPOS>MOLECULE
1nnb_ligand
   36    36     1     0     0
SMALL
USER_CHARGES


@<TRIPOS>ATOM
      1 C1         24.0190   20.0630   65.6820 C.2       1 SUB1        0.000
      2 C2         24.6550   18.9790   64.8050 C.2       1 SUB1        0.000
      3 C3         24.2020   17.5460   64.5910 C.2       1 SUB1        0.000
      4 C4         24.7070   16.8560   63.3620 C.3       1 SUB1        0.000
      5 C5         26.2460   17.0260   63.5020 C.3       1 SUB1        0.000
      6 C6         26.6180   18.4840   63.2660 C.3       1 SUB1        0.000
      7 C7         28.0300   18.7620   63.8170 C.3       1 SUB1        0.000
      8 C8         28.3280   20.2690   63.4890 C.3       1 SUB1        0.000
      9 C9         29.8090   20.7070   63.8860 C.3       1 SUB1        0.000
     10 C10        27.4130   14.9770   62.5940 C.2       1 SUB1        0.000
     11 C11        28.0820   14.3340   61.3760 C.3       1 SUB1        0.000
     12 N5         27.0090   16.2420   62.5280 N.am      1 SUB1        0.000
     13 O1A        24.6110   21.1830   65.6650 O.co2     1 SUB1       -0.500
     14 O1B        22.7940   19.9580   65.9750 O.co2     1 SUB1       -0.500
     15 O4         24.2850   15.5240   63.0100 O.3       1 SUB1        0.000
     16 O6         25.7110   19.4370   63.9400 O.3       1 SUB1        0.000
     17 O7         28.1170   18.4490   65.2350 O.3       1 SUB1        0.000
     18 O8         28.1600   20.2920   62.0880 O.3       1 SUB1        0.000
     19 O9         30.7360   19.9700   63.0690 O.3       1 SUB1        0.000
     20 O10        27.4470   14.3400   63.6480 O.2       1 SUB1        0.000
     21 H31        23.5240   16.9790   65.2860 H         1 SUB1        0.000
     22 H4         24.3350   17.4820   62.5410 H         1 SUB1        0.000
     23 HO4        23.3130   15.5400   62.9860 H         1 SUB1        0.000
     24 H5         26.6180   16.7060   64.4660 H         1 SUB1        0.000
     25 H6         26.5350   18.6750   62.1730 H         1 SUB1        0.000
     26 H7         28.7690   18.1460   63.2930 H         1 SUB1        0.000
     27 HO7        27.2390   18.2000   65.5610 H         1 SUB1        0.000
     28 H8         27.5730   20.9340   63.9390 H         1 SUB1        0.000
     29 HO8        29.0350   20.3160   61.6710 H         1 SUB1        0.000
     30 H91        30.0060   21.7750   63.7380 H         1 SUB1        0.000
     31 H92        30.0130   20.5250   64.9570 H         1 SUB1        0.000
     32 HO9        30.8180   20.3810   62.1880 H         1 SUB1        0.000
     33 HN5        27.3100   16.7750   61.7630 H         1 SUB1        0.000
     34 H1         28.3477   13.2927   61.6108 H         1 SUB1        0.000
     35 H2         28.9922   14.8955   61.1185 H         1 SUB1        0.000
     36 H3         27.3868   14.3518   60.5238 H         1 SUB1        0.000
@<TRIPOS>BOND
     1    1    2 1  
     2    1   13 ar 
     3    1   14 ar 
     4    2    3 2  
     5    2   16 1  
     6    3    4 1  
     7    3   21 1  
     8    4    5 1  
     9    4   15 1  
    10    4   22 1  
    11    5    6 1  
    12    5   12 1  
    13    5   24 1  
    14    6    7 1  
    15    6   16 1  
    16    6   25 1  
    17    7    8 1  
    18    7   17 1  
    19    7   26 1  
    20    8    9 1  
    21    8   18 1  
    22    8   28 1  
    23    9   19 1  
    24    9   30 1  
    25    9   31 1  
    26   10   11 1  
    27   12   10 am 
    28   10   20 2  
    29   12   33 1  
    30   15   23 1  
    31   17   27 1  
    32   19   32 1  
    33   18   29 1  
    34   11   34 1  
    35   11   35 1  
    36   11   36 1  
@<TRIPOS>SUBSTRUCTURE
     1 SUB1        1 GROUP

