### Name: 1pph_ligand
### Creating user name: arthur
### Creation time: Tue Nov 27 11:30:21 2001


@<TRIPOS>MOLECULE
1pph_ligand
   59    61     1     0     0
SMALL
USER_CHARGES


@<TRIPOS>ATOM
      1 S          -5.9300    4.1070   23.9760 S.o2      1 SUB1        0.000
      2 C1         -4.8070    4.0070   25.3830 C.ar      1 SUB1        0.000
      3 C6         -4.2000    2.8170   25.7530 C.ar      1 SUB1        0.000
      4 ****       -4.4829    1.8815   25.2842 H         1 SUB1        0.000
      5 C5         -3.2240    2.8500   26.7350 C.ar      1 SUB1        0.000
      6 ****       -2.7254    1.9371   27.0400 H         1 SUB1        0.000
      7 C4         -2.8870    4.0670   27.3290 C.ar      1 SUB1        0.000
      8 C7         -1.7820    4.1410   28.3860 C.3       1 SUB1        0.000
      9 ****       -1.6704    5.1807   28.7275 H         1 SUB1        0.000
     10 ****       -0.8335    3.7945   27.9498 H         1 SUB1        0.000
     11 ****       -2.0482    3.5011   29.2402 H         1 SUB1        0.000
     12 C3         -3.5280    5.2410   26.9810 C.ar      1 SUB1        0.000
     13 ****       -3.2732    6.1742   27.4702 H         1 SUB1        0.000
     14 C2         -4.4930    5.2050   26.0050 C.ar      1 SUB1        0.000
     15 ****       -5.0098    6.1145   25.7207 H         1 SUB1        0.000
     16 O2         -7.0380    5.0670   24.3810 O.2       1 SUB1        0.000
     17 O1         -6.4450    2.7280   23.5830 O.2       1 SUB1        0.000
     18 C          -2.6780    4.5080   22.8020 C.2       1 SUB1        0.000
     19 O          -2.5950    5.6420   23.3040 O.2       1 SUB1        0.000
     20 CA         -3.9800    4.1220   22.0690 C.3       1 SUB1        0.000
     21 ****       -4.1138    3.0353   22.1749 H         1 SUB1        0.000
     22 N          -5.1570    4.7810   22.6350 N.am      1 SUB1        0.000
     23 ****       -5.5023    5.6273   22.2292 H         1 SUB1        0.000
     24 CB         -3.8870    4.4550   20.5690 C.3       1 SUB1        0.000
     25 ****       -4.9120    4.5786   20.1895 H         1 SUB1        0.000
     26 ****       -3.4100    3.6012   20.0656 H         1 SUB1        0.000
     27 CG         -3.0970    5.7160   20.1980 C.ar      1 SUB1        0.000
     28 CD2        -1.7560    5.6350   19.8730 C.ar      1 SUB1        0.000
     29 ****       -1.2391    4.6827   19.9055 H         1 SUB1        0.000
     30 CE2        -1.0870    6.7790   19.5080 C.ar      1 SUB1        0.000
     31 ****       -0.0345    6.7149   19.2566 H         1 SUB1        0.000
     32 CZ         -1.7150    8.0070   19.4520 C.ar      1 SUB1        0.000
     33 ****       -1.1534    8.8868   19.1596 H         1 SUB1        0.000
     34 CE1        -3.0700    8.1220   19.7700 C.ar      1 SUB1        0.000
     35 CF         -3.7400    9.3550   19.6970 C.cat     1 SUB1        0.000
     36 ****       -5.5342   10.3408   19.9688 H         1 SUB1        0.000
     37 NG2        -5.0450    9.4360   20.0230 N.pl3     1 SUB1        0.500
     38 ****       -5.5533    8.5931   20.3264 H         1 SUB1        0.000
     39 ****       -2.0598   10.3768   19.0731 H         1 SUB1        0.000
     40 NG1        -3.0570   10.4510   19.3200 N.pl3     1 SUB1        0.500
     41 ****       -3.5313   11.3644   19.2782 H         1 SUB1        0.000
     42 ****       -4.7590    7.0107   20.3971 H         1 SUB1        0.000
     43 CD1        -3.7080    6.9530   20.1380 C.ar      1 SUB1        0.000
     44 ****       -0.4006    5.0942   23.7560 H         1 SUB1        0.000
     45 N1         -1.6380    3.6540   22.8470 N.am      1 SUB1        0.000
     46 C6         -0.3530    4.0580   23.3900 C.3       1 SUB1        0.000
     47 ****        0.4302    3.9760   22.6220 H         1 SUB1        0.000
     48 ****       -0.9012    3.1294   25.2497 H         1 SUB1        0.000
     49 C5         -0.0730    3.1140   24.5260 C.3       1 SUB1        0.000
     50 ****        0.8625    3.3921   25.0333 H         1 SUB1        0.000
     51 ****        0.2863    1.0168   24.6913 H         1 SUB1        0.000
     52 C4          0.0540    1.7490   23.9040 C.3       1 SUB1        0.000
     53 ****        0.8700    1.7659   23.1666 H         1 SUB1        0.000
     54 ****       -2.0420    1.2638   23.9509 H         1 SUB1        0.000
     55 C3         -1.2340    1.3360   23.2080 C.3       1 SUB1        0.000
     56 ****       -1.0898    0.3575   22.7267 H         1 SUB1        0.000
     57 ****       -0.8606    2.3714   21.3530 H         1 SUB1        0.000
     58 C2         -1.6090    2.3590   22.1590 C.3       1 SUB1        0.000
     59 ****       -2.5984    2.1284   21.7372 H         1 SUB1        0.000
@<TRIPOS>BOND
     1    1    2 1  
     2    1   16 2  
     3    1   17 2  
     4    2    3 ar 
     5    2   14 ar 
     6    3    4 1  
     7    3    5 ar 
     8    5    6 1  
     9    5    7 ar 
    10    7    8 1  
    11    7   12 ar 
    12    8    9 1  
    13    8   10 1  
    14    8   11 1  
    15   12   13 1  
    16   12   14 ar 
    17   14   15 1  
    18   18   19 2  
    19   18   20 1  
    20   18   45 am 
    21   20   21 1  
    22   20   22 1  
    23   20   24 1  
    24   22    1 1  
    25   22   23 1  
    26   24   25 1  
    27   24   26 1  
    28   24   27 1  
    29   27   28 ar 
    30   27   43 ar 
    31   28   29 1  
    32   28   30 ar 
    33   30   31 1  
    34   30   32 ar 
    35   32   33 1  
    36   32   34 ar 
    37   34   35 1  
    38   34   43 ar 
    39   37   36 1  
    40   35   37 ar 
    41   35   40 ar 
    42   37   38 1  
    43   40   39 1  
    44   40   41 1  
    45   43   42 1  
    46   46   44 1  
    47   46   45 1  
    48   45   58 1  
    49   46   47 1  
    50   49   48 1  
    51   46   49 1  
    52   49   50 1  
    53   52   51 1  
    54   49   52 1  
    55   52   53 1  
    56   55   54 1  
    57   52   55 1  
    58   55   56 1  
    59   58   57 1  
    60   55   58 1  
    61   58   59 1  
@<TRIPOS>SUBSTRUCTURE
     1 SUB1        1 GROUP

