### Name: 1pso_ligand
### Creating user name: arthur
### Creation time: Tue Nov 27 11:30:21 2001


@<TRIPOS>MOLECULE
1pso_ligand
  110   109     1     0     0
SMALL
USER_CHARGES


@<TRIPOS>ATOM
      1 H           6.9921   20.8183    2.9466 H         1 SUB1        0.000
      2 HA          7.4748   18.1650    4.2161 H         1 SUB1        0.000
      3 HB          8.8987   20.1353    3.0229 H         1 SUB1        0.000
      4 HG13        8.7890   21.8322    4.6740 H         1 SUB1        0.000
      5 HG12       10.4649   21.1928    4.5790 H         1 SUB1        0.000
      6 HG11        9.3970   20.7140    5.9416 H         1 SUB1        0.000
      7 HG23        9.9629   18.1794    5.0545 H         1 SUB1        0.000
      8 HG22       10.9540   19.0966    3.8700 H         1 SUB1        0.000
      9 HG21        9.7150   17.9311    3.2928 H         1 SUB1        0.000
     10 H           6.7363   17.6627    6.1900 H         1 SUB1        0.000
     11 HA          6.4272   19.8823    8.1892 H         1 SUB1        0.000
     12 HB          4.8312   17.2790    8.1183 H         1 SUB1        0.000
     13 HG13        5.2898   18.0219   10.4014 H         1 SUB1        0.000
     14 HG12        3.5595   18.2806    9.9943 H         1 SUB1        0.000
     15 HG11        4.6966   19.6710   10.0071 H         1 SUB1        0.000
     16 HG23        3.9211   20.1468    7.5984 H         1 SUB1        0.000
     17 HG22        2.8551   18.7056    7.7130 H         1 SUB1        0.000
     18 HG21        4.0541   18.8322    6.3815 H         1 SUB1        0.000
     19 H           9.9648   17.2612   14.1937 H         1 SUB1        0.000
     20 HA          9.1990   14.4979   13.8875 H         1 SUB1        0.000
     21 HB3        10.3926   15.9169   16.3263 H         1 SUB1        0.000
     22 HB2        11.3055   15.1019   15.0114 H         1 SUB1        0.000
     23 HB1        10.2642   14.1380   16.1128 H         1 SUB1        0.000
     24 H1          6.4009   20.3375    0.8116 H         1 SUB1        0.000
     25 H2          5.1648   19.0651    0.5295 H         1 SUB1        0.000
     26 H3          4.7283   21.8318    1.7132 H         1 SUB1        0.000
     27 H4          3.4087   22.1415   -0.3855 H         1 SUB1        0.000
     28 H5          3.8892   20.4925   -0.9111 H         1 SUB1        0.000
     29 H6          5.1353   21.7712   -0.7142 H         1 SUB1        0.000
     30 H7          3.1882   20.2174    2.7900 H         1 SUB1        0.000
     31 H8          2.6534   19.6515    1.1713 H         1 SUB1        0.000
     32 H9          2.3185   21.3387    1.6887 H         1 SUB1        0.000
     33 H10         8.4100   19.6955    9.1953 H         1 SUB1        0.000
     34 H11         9.4218   16.9779   10.0100 H         1 SUB1        0.000
     35 H12        11.6103   18.5713    9.9004 H         1 SUB1        0.000
     36 H13        10.5812   19.3877    8.6751 H         1 SUB1        0.000
     37 H14        12.1620   16.9082    8.5453 H         1 SUB1        0.000
     38 H15        12.3713   17.7452    6.1913 H         1 SUB1        0.000
     39 H16        12.7635   18.9974    7.4180 H         1 SUB1        0.000
     40 H17        11.1783   19.0325    6.5738 H         1 SUB1        0.000
     41 H18         9.9711   15.8701    8.1856 H         1 SUB1        0.000
     42 H19        10.9784   15.9052    6.6987 H         1 SUB1        0.000
     43 H20         9.6256   17.0706    6.8949 H         1 SUB1        0.000
     44 H21        10.5468   18.1598   11.8605 H         1 SUB1        0.000
     45 H22         9.9171   20.4025   12.1814 H         1 SUB1        0.000
     46 H23         7.5437   18.5083   11.8418 H         1 SUB1        0.000
     47 H24         8.5708   18.9995   13.2312 H         1 SUB1        0.000
     48 H25         7.9153   13.1919   15.0518 H         1 SUB1        0.000
     49 H26         5.5939   14.4464   16.4558 H         1 SUB1        0.000
     50 H27         4.6909   12.0546   15.4232 H         1 SUB1        0.000
     51 H28         5.9086   12.5542   14.2008 H         1 SUB1        0.000
     52 H29         3.3204   13.8618   14.9998 H         1 SUB1        0.000
     53 H30         3.0557   13.8381   12.5112 H         1 SUB1        0.000
     54 H31         3.3675   12.2049   13.1910 H         1 SUB1        0.000
     55 H32         4.6883   13.1026   12.3685 H         1 SUB1        0.000
     56 H33         4.9295   15.7385   15.0571 H         1 SUB1        0.000
     57 H34         3.8075   15.8475   13.6586 H         1 SUB1        0.000
     58 H35         5.4985   15.2937   13.4124 H         1 SUB1        0.000
     59 H36         5.1520   12.0482   17.3113 H         1 SUB1        0.000
     60 H37         7.1316   10.8903   17.7178 H         1 SUB1        0.000
     61 H38         5.9993   12.4203   19.4147 H         1 SUB1        0.000
     62 H39         5.7824   14.0678   18.7325 H         1 SUB1        0.000
     63 CA          5.4700   19.8900    1.1900 C.3       1 SUB1        0.000
     64 CB          4.3800   20.9600    1.1400 C.3       1 SUB1        0.000
     65 CG1         4.1900   21.3700   -0.3200 C.3       1 SUB1        0.000
     66 CG2         3.0400   20.5100    1.7400 C.3       1 SUB1        0.000
     67 C           5.7600   19.3000    2.5800 C.2       1 SUB1        0.000
     68 O           4.9500   18.5700    3.1500 O.2       1 SUB1        0.000
     69 N           6.7400   19.8900    3.2200 N.am      1 SUB1        0.000
     70 CA          7.4900   19.2600    4.3200 C.3       1 SUB1        0.000
     71 C           6.8500   19.6000    5.6800 C.2       1 SUB1        0.000
     72 O           6.3300   20.6900    5.8500 O.2       1 SUB1        0.000
     73 CB          8.9300   19.7700    4.0600 C.3       1 SUB1        0.000
     74 CG1         9.4300   20.9600    4.8700 C.3       1 SUB1        0.000
     75 CG2         9.9600   18.6700    4.0700 C.3       1 SUB1        0.000
     76 N           6.6600   18.6000    6.5300 N.am      1 SUB1        0.000
     77 CA          6.3400   18.8100    7.9600 C.3       1 SUB1        0.000
     78 C           7.3900   18.0300    8.7900 C.2       1 SUB1        0.000
     79 O           7.2900   16.8200    8.9200 O.2       1 SUB1        0.000
     80 CB          4.9000   18.3600    8.3100 C.3       1 SUB1        0.000
     81 CG1         4.5900   18.6000    9.7800 C.3       1 SUB1        0.000
     82 CG2         3.8600   19.0600    7.4400 C.3       1 SUB1        0.000
     83 N           8.4100   18.7000    9.2900 N.am      1 SUB1        0.000
     84 CA          9.5500   18.0700    9.9800 C.3       1 SUB1        0.000
     85 CB         10.8000   18.4300    9.1700 C.3       1 SUB1        0.000
     86 CG         11.3600   17.5000    8.0800 C.3       1 SUB1        0.000
     87 CD1        11.9600   18.3800    6.9900 C.3       1 SUB1        0.000
     88 CD2        10.4200   16.5200    7.4200 C.3       1 SUB1        0.000
     89 CH          9.6500   18.6100   11.4100 C.3       1 SUB1        0.000
     90 OH          9.8500   20.0300   11.3100 O.3       1 SUB1        0.000
     91 CM          8.4900   18.3200   12.3700 C.3       1 SUB1        0.000
     92 C           8.4800   16.8700   12.8900 C.2       1 SUB1        0.000
     93 O           7.8100   16.0400   12.3100 O.2       1 SUB1        0.000
     94 N           9.2800   16.5900   13.9100 N.am      1 SUB1        0.000
     95 CA          9.1800   15.3000   14.6400 C.3       1 SUB1        0.000
     96 C           7.9000   15.1500   15.4500 C.2       1 SUB1        0.000
     97 O           7.4900   16.1000   16.0800 O.2       1 SUB1        0.000
     98 CB         10.3700   15.1000   15.5900 C.3       1 SUB1        0.000
     99 N           7.3800   13.9200   15.4800 N.am      1 SUB1        0.000
    100 CA          6.0800   13.5300   16.0900 C.3       1 SUB1        0.000
    101 CB          5.2300   12.9100   14.9900 C.3       1 SUB1        0.000
    102 CG          4.2000   13.8300   14.3400 C.3       1 SUB1        0.000
    103 CD1         3.8000   13.2000   13.0100 C.3       1 SUB1        0.000
    104 CD2         4.6400   15.2800   14.1000 C.3       1 SUB1        0.000
    105 CH          6.1400   12.5300   17.2700 C.3       1 SUB1        0.000
    106 OH          7.1000   11.5000   16.9900 O.3       1 SUB1        0.000
    107 CM          6.3700   13.1400   18.6700 C.3       1 SUB1        0.000
    108 C           7.8200   13.4800   19.0300 C.2       1 SUB1        0.000
    109 O           8.4200   12.6800   19.7900 O.co2     1 SUB1       -0.500
    110 OXT         8.2400   14.6100   18.7200 O.co2     1 SUB1       -0.500
@<TRIPOS>BOND
     1   69    1 1  
     2   70    2 1  
     3   73    3 1  
     4   74    4 1  
     5   74    5 1  
     6   74    6 1  
     7   75    7 1  
     8   75    8 1  
     9   75    9 1  
    10   76   10 1  
    11   77   11 1  
    12   80   12 1  
    13   81   13 1  
    14   81   14 1  
    15   81   15 1  
    16   82   16 1  
    17   82   17 1  
    18   82   18 1  
    19   94   19 1  
    20   95   20 1  
    21   98   21 1  
    22   98   22 1  
    23   98   23 1  
    24   63   24 1  
    25   63   25 1  
    26   64   26 1  
    27   65   27 1  
    28   65   28 1  
    29   65   29 1  
    30   66   30 1  
    31   66   31 1  
    32   66   32 1  
    33   83   33 1  
    34   84   34 1  
    35   85   35 1  
    36   85   36 1  
    37   86   37 1  
    38   87   38 1  
    39   87   39 1  
    40   87   40 1  
    41   88   41 1  
    42   88   42 1  
    43   88   43 1  
    44   89   44 1  
    45   90   45 1  
    46   91   46 1  
    47   91   47 1  
    48   99   48 1  
    49  100   49 1  
    50  101   50 1  
    51  101   51 1  
    52  102   52 1  
    53  103   53 1  
    54  103   54 1  
    55  103   55 1  
    56  104   56 1  
    57  104   57 1  
    58  104   58 1  
    59  105   59 1  
    60  106   60 1  
    61  107   61 1  
    62  107   62 1  
    63   70   69 1  
    64   70   73 1  
    65   70   71 1  
    66   71   72 2  
    67   73   75 1  
    68   73   74 1  
    69   77   76 1  
    70   77   80 1  
    71   77   78 1  
    72   78   79 2  
    73   80   82 1  
    74   80   81 1  
    75   71   76 am 
    76   95   94 1  
    77   95   98 1  
    78   95   96 1  
    79   96   97 2  
    80   63   64 1  
    81   63   67 1  
    82   64   65 1  
    83   64   66 1  
    84   67   68 2  
    85   67   69 am 
    86   78   83 am 
    87   83   84 1  
    88   84   85 1  
    89   84   89 1  
    90   85   86 1  
    91   86   87 1  
    92   86   88 1  
    93   89   90 1  
    94   89   91 1  
    95   91   92 1  
    96   92   93 2  
    97   92   94 am 
    98   96   99 am 
    99   99  100 1  
   100  100  101 1  
   101  100  105 1  
   102  101  102 1  
   103  102  103 1  
   104  102  104 1  
   105  105  106 1  
   106  105  107 1  
   107  107  108 1  
   108  108  109 ar 
   109  108  110 ar 
@<TRIPOS>SUBSTRUCTURE
     1 SUB1        1 GROUP

