### Name: 1rnt_ligand
### Creating user name: arthur
### Creation time: Tue Nov 27 11:30:22 2001


@<TRIPOS>MOLECULE
1rnt_ligand
   36    38     1     0     0
SMALL
USER_CHARGES


@<TRIPOS>ATOM
      1 H1         17.3618   35.3090   24.6614 H         1 SUB1        0.000
      2 H2         18.2795   33.2881   25.3354 H         1 SUB1        0.000
      3 H3         19.5186   34.5624   25.0752 H         1 SUB1        0.000
      4 H4         20.0846   32.3742   24.0775 H         1 SUB1        0.000
      5 H5         20.7175   34.7197   22.7733 H         1 SUB1        0.000
      6 H6         21.8118   33.2216   21.3769 H         1 SUB1        0.000
      7 H7         18.5453   34.7552   21.5326 H         1 SUB1        0.000
      8 H8         19.1536   31.8621   20.9348 H         1 SUB1        0.000
      9 H9         17.4665   30.6474   19.6762 H         1 SUB1        0.000
     10 H10        12.6804   34.2626   22.0653 H         1 SUB1        0.000
     11 H11        15.2686   36.1407   23.4195 H         1 SUB1        0.000
     12 H12        13.5143   35.8753   23.2335 H         1 SUB1        0.000
     13 P          19.6640   35.4300   19.2180 P.3       1 SUB1        0.000
     14 O1P        20.7560   35.1860   18.0640 O.co2     1 SUB1       -0.500
     15 O2P        20.1580   36.6050   20.0270 O.co2     1 SUB1       -0.500
     16 O3P        18.4070   35.4500   18.5110 O.co2     1 SUB1       -0.500
     17 O5'        17.7700   34.7750   23.9900 O.3       1 SUB1        0.000
     18 C5'        18.7590   33.9350   24.5860 C.3       1 SUB1        0.000
     19 C4'        19.4260   33.0730   23.5410 C.3       1 SUB1        0.000
     20 O4'        18.3890   32.3120   22.8240 O.3       1 SUB1        0.000
     21 C3'        20.2770   33.7640   22.4530 C.3       1 SUB1        0.000
     22 O3'        21.2650   32.8320   22.0490 O.3       1 SUB1        0.000
     23 C2'        19.2330   33.9200   21.3340 C.3       1 SUB1        0.000
     24 O2'        19.9030   34.1540   20.1060 O.3       1 SUB1        0.000
     25 C1'        18.5040   32.6080   21.4160 C.3       1 SUB1        0.000
     26 N9         17.1880   32.4230   20.8480 N.pl3     1 SUB1        0.000
     27 C8         16.7810   31.3610   20.1310 C.2       1 SUB1        0.000
     28 N7         15.4920   31.2710   20.0350 N.2       1 SUB1        0.000
     29 C5         14.9600   32.3310   20.7650 C.2       1 SUB1        0.000
     30 C6         13.6370   32.7550   21.0280 C.2       1 SUB1        0.000
     31 O6         12.5270   32.2980   20.6690 O.2       1 SUB1        0.000
     32 N1         13.5740   33.8900   21.8150 N.am      1 SUB1        0.000
     33 C2         14.7280   34.5260   22.2670 C.2       1 SUB1        0.000
     34 N2         14.4850   35.5960   23.0320 N.pl3     1 SUB1        0.000
     35 N3         15.9480   34.1530   22.0390 N.2       1 SUB1        0.000
     36 C4         16.0190   33.0400   21.2750 C.2       1 SUB1        0.000
@<TRIPOS>BOND
     1   17    1 1  
     2   18    2 1  
     3   18    3 1  
     4   19    4 1  
     5   21    5 1  
     6   22    6 1  
     7   23    7 1  
     8   25    8 1  
     9   27    9 1  
    10   32   10 1  
    11   34   11 1  
    12   34   12 1  
    13   13   14 ar 
    14   13   15 ar 
    15   13   16 ar 
    16   13   24 1  
    17   18   17 1  
    18   19   18 1  
    19   19   20 1  
    20   21   19 1  
    21   21   22 1  
    22   23   21 1  
    23   24   23 1  
    24   23   25 1  
    25   25   20 1  
    26   25   26 1  
    27   26   27 1  
    28   26   36 1  
    29   27   28 2  
    30   28   29 1  
    31   29   30 1  
    32   29   36 2  
    33   30   31 2  
    34   30   32 am 
    35   32   33 am 
    36   33   34 1  
    37   33   35 2  
    38   35   36 1  
@<TRIPOS>SUBSTRUCTURE
     1 SUB1        1 GROUP

