### Name: 1rus_ligand
### Creating user name: arthur
### Creation time: Tue Nov 27 11:30:29 2001


@<TRIPOS>MOLECULE
1rus_ligand
   15    14     1     0     0
SMALL
USER_CHARGES


@<TRIPOS>ATOM
      1 H1         32.5306   13.9179   32.7827 H         1 SUB1        0.000
      2 H2         31.4866   15.3053   31.1849 H         1 SUB1        0.000
      3 H3         29.6992   13.7439   32.2677 H         1 SUB1        0.000
      4 H4         29.8634   13.6644   34.0547 H         1 SUB1        0.000
      5 O1         33.3200   15.8890   34.2610 O.co2     1 SUB1       -0.500
      6 C1         32.1250   15.3660   34.2690 C.2       1 SUB1        0.000
      7 O2         31.4100   15.5060   35.3380 O.co2     1 SUB1       -0.500
      8 C2         31.6910   14.5860   33.0250 C.3       1 SUB1        0.000
      9 OH         31.7390   15.6510   32.0330 O.3       1 SUB1        0.000
     10 C3         30.3720   13.4800   33.0970 C.3       1 SUB1        0.000
     11 OPC        30.6030   11.9110   33.0060 O.3       1 SUB1        0.000
     12 PC         30.3070   10.4840   34.1630 P.3       1 SUB1        0.000
     13 OC1        28.8730   10.4180   34.9160 O.co2     1 SUB1       -0.500
     14 OC2        31.3930   10.2890   35.3600 O.co2     1 SUB1       -0.500
     15 OC3        30.3600    9.0180   33.4240 O.co2     1 SUB1       -0.500
@<TRIPOS>BOND
     1    8    1 1  
     2    9    2 1  
     3   10    3 1  
     4   10    4 1  
     5    5    6 ar 
     6    6    7 ar 
     7    6    8 1  
     8    8    9 1  
     9    8   10 1  
    10   10   11 1  
    11   11   12 1  
    12   12   13 ar 
    13   12   14 ar 
    14   12   15 ar 
@<TRIPOS>SUBSTRUCTURE
     1 SUB1        1 GROUP

