### Name: 1sre_ligand
### Creating user name: arthur
### Creation time: Tue Nov 27 11:30:22 2001


@<TRIPOS>MOLECULE
1sre_ligand
   27    28     1     0     0
SMALL
USER_CHARGES


@<TRIPOS>ATOM
      1 H1         35.3196   10.5738   -3.1545 H         1 SUB1        0.000
      2 H2         33.2897    9.1397   -3.1160 H         1 SUB1        0.000
      3 H3         31.2950    9.7326   -4.4484 H         1 SUB1        0.000
      4 H4         31.3630   11.7182   -5.9668 H         1 SUB1        0.000
      5 H5         33.5773   15.5443   -7.4752 H         1 SUB1        0.000
      6 H6         32.8676   17.3627   -9.0029 H         1 SUB1        0.000
      7 H7         29.1978   15.3012   -9.8538 H         1 SUB1        0.000
      8 H8         29.8902   13.4475   -8.3191 H         1 SUB1        0.000
      9 H9         31.2939   18.1478  -10.3636 H         1 SUB1        0.000
     10 C1         33.4080   12.2270   -5.3890 C.ar      1 SUB1        0.000
     11 C2         34.4880   11.9540   -4.6170 C.ar      1 SUB1        0.000
     12 C3         34.4630   10.8210   -3.7710 C.ar      1 SUB1        0.000
     13 C4         33.3100   10.0230   -3.7440 C.ar      1 SUB1        0.000
     14 C5         32.1880   10.3440   -4.5100 C.ar      1 SUB1        0.000
     15 C6         32.2190   11.4550   -5.3560 C.ar      1 SUB1        0.000
     16 C1'        31.7790   14.3940   -7.8400 C.ar      1 SUB1        0.000
     17 C2'        32.6310   15.4890   -8.0010 C.ar      1 SUB1        0.000
     18 C3'        32.2270   16.5010   -8.8540 C.ar      1 SUB1        0.000
     19 C4'        31.0110   16.4270   -9.5220 C.ar      1 SUB1        0.000
     20 C5'        30.1510   15.3400   -9.3390 C.ar      1 SUB1        0.000
     21 C6'        30.5370   14.3020   -8.4820 C.ar      1 SUB1        0.000
     22 C          35.7370   12.8300   -4.6450 C.2       1 SUB1        0.000
     23 N1         33.3380   13.4220   -6.2980 N.2       1 SUB1        0.000
     24 N1'        32.1900   13.3320   -6.9060 N.2       1 SUB1        0.000
     25 O          36.5450   12.6660   -3.7250 O.co2     1 SUB1       -0.500
     26 OXT        36.0000   13.8300   -5.6110 O.co2     1 SUB1       -0.500
     27 O4'        30.6080   17.4910  -10.3380 O.3       1 SUB1        0.000
@<TRIPOS>BOND
     1   12    1 1  
     2   13    2 1  
     3   14    3 1  
     4   15    4 1  
     5   17    5 1  
     6   18    6 1  
     7   20    7 1  
     8   21    8 1  
     9   27    9 1  
    10   10   11 ar 
    11   10   15 ar 
    12   10   23 1  
    13   11   12 ar 
    14   11   22 1  
    15   12   13 ar 
    16   13   14 ar 
    17   14   15 ar 
    18   16   17 ar 
    19   16   21 ar 
    20   17   18 ar 
    21   18   19 ar 
    22   20   19 ar 
    23   21   20 ar 
    24   22   25 ar 
    25   22   26 ar 
    26   23   24 2  
    27   24   16 1  
    28   19   27 1  
@<TRIPOS>SUBSTRUCTURE
     1 SUB1        1 GROUP

