### Name: 1tlp_ligand
### Creating user name: arthur
### Creation time: Tue Nov 27 11:30:22 2001


@<TRIPOS>MOLECULE
1tlp_ligand
   69    71     1     0     0
SMALL
USER_CHARGES


@<TRIPOS>ATOM
      1 H          50.8355   17.5641   -5.2829 H         1 SUB1        0.000
      2 HA         53.3965   18.7969   -4.5894 H         1 SUB1        0.000
      3 HB2        51.3563   17.4600   -2.7963 H         1 SUB1        0.000
      4 HB1        51.7127   19.2148   -2.9384 H         1 SUB1        0.000
      5 HG         53.6907   17.0830   -1.9973 H         1 SUB1        0.000
      6 C1         51.1830   16.9140   -8.2540 C.3       1 SUB1        0.000
      7 O1         50.9200   18.1370   -7.6430 O.3       1 SUB1        0.000
      8 C2         50.1710   16.1130   -7.5020 C.3       1 SUB1        0.000
      9 O2         49.9760   14.7420   -8.0340 O.3       1 SUB1        0.000
     10 C3         48.8650   16.7500   -7.7870 C.3       1 SUB1        0.000
     11 O3         48.0220   16.0090   -6.9240 O.3       1 SUB1        0.000
     12 C4         48.6100   16.5020   -9.2630 C.3       1 SUB1        0.000
     13 O4         47.2680   16.7170   -9.5930 O.3       1 SUB1        0.000
     14 C5         49.5720   17.3760  -10.0840 C.3       1 SUB1        0.000
     15 O5         50.9170   16.9670   -9.6780 O.3       1 SUB1        0.000
     16 C6         49.3600   17.3970  -11.6040 C.3       1 SUB1        0.000
     17 P          51.7150   18.9020   -6.5960 P.3       1 SUB1        0.000
     18 O1P        53.2310   19.0530   -6.8700 O.co2     1 SUB1       -0.500
     19 O2P        51.1940   20.2340   -6.3250 O.co2     1 SUB1       -0.500
     20 N          51.6670   18.1030   -5.4180 N.am      1 SUB1        0.000
     21 CA         52.6880   17.9800   -4.3880 C.3       1 SUB1        0.000
     22 C          53.5040   16.7200   -4.3740 C.2       1 SUB1        0.000
     23 O          54.6370   16.8510   -3.9330 O.2       1 SUB1        0.000
     24 CB         52.1440   18.2040   -2.9860 C.3       1 SUB1        0.000
     25 CG         53.2360   18.0740   -1.8520 C.3       1 SUB1        0.000
     26 CD1        54.3930   19.0990   -1.8240 C.3       1 SUB1        0.000
     27 CD2        52.6370   18.1190   -0.4400 C.3       1 SUB1        0.000
     28 N          52.9100   15.5590   -4.8310 N.am      1 SUB1        0.000
     29 CA         53.5360   14.2310   -4.9710 C.3       1 SUB1        0.000
     30 C          52.6730   13.2180   -5.7660 C.2       1 SUB1        0.000
     31 O          51.4900   13.6410   -5.9320 O.co2     1 SUB1       -0.500
     32 CB         54.0320   13.7790   -3.5780 C.3       1 SUB1        0.000
     33 CG         52.9380   13.3650   -2.6840 C.2       1 SUB1        0.000
     34 CD1        52.1560   14.1970   -1.9470 C.2       1 SUB1        0.000
     35 CD2        52.4770   12.0380   -2.4410 C.ar      1 SUB1        0.000
     36 NE1        51.2200   13.4920   -1.2530 N.pl3     1 SUB1        0.000
     37 CE2        51.3940   12.1660   -1.5210 C.ar      1 SUB1        0.000
     38 CE3        52.8730   10.7720   -2.9060 C.ar      1 SUB1        0.000
     39 CZ2        50.6760   11.0820   -1.0520 C.ar      1 SUB1        0.000
     40 CZ3        52.1450    9.6940   -2.4440 C.ar      1 SUB1        0.000
     41 CH2        51.0840    9.8480   -1.5190 C.ar      1 SUB1        0.000
     42 OXT        53.1840   12.0870   -6.1640 O.co2     1 SUB1       -0.500
     43 HD13       54.9635   19.0336   -2.7622 H         1 SUB1        0.000
     44 HD12       55.0570   18.8793   -0.9750 H         1 SUB1        0.000
     45 HD11       53.9817   20.1134   -1.7149 H         1 SUB1        0.000
     46 HD23       52.1227   19.0798   -0.2903 H         1 SUB1        0.000
     47 HD22       53.4413   18.0140    0.3030 H         1 SUB1        0.000
     48 HD21       51.9176   17.2955   -0.3204 H         1 SUB1        0.000
     49 H          51.9483   15.6269   -5.0964 H         1 SUB1        0.000
     50 HA         54.4397   14.3734   -5.5817 H         1 SUB1        0.000
     51 HB2        54.5701   14.6159   -3.1090 H         1 SUB1        0.000
     52 HB1        54.7182   12.9293   -3.7090 H         1 SUB1        0.000
     53 HD1        52.2632   15.2803   -1.9156 H         1 SUB1        0.000
     54 HE1        50.5027   13.8921   -0.6315 H         1 SUB1        0.000
     55 HE3        53.7048   10.6489   -3.5901 H         1 SUB1        0.000
     56 HZ2        49.8468   11.1932   -0.3627 H         1 SUB1        0.000
     57 HZ3        52.3928    8.7005   -2.7997 H         1 SUB1        0.000
     58 HH2        50.5714    8.9616   -1.1631 H         1 SUB1        0.000
     59 H1         52.2109   16.5625   -8.0814 H         1 SUB1        0.000
     60 H2         50.4135   16.0931   -6.4292 H         1 SUB1        0.000
     61 H3         49.3230   14.2900   -7.5127 H         1 SUB1        0.000
     62 H4         48.8390   17.8259   -7.5597 H         1 SUB1        0.000
     63 H5         47.1291   16.3223   -7.0078 H         1 SUB1        0.000
     64 H6         48.8388   15.4482   -9.4802 H         1 SUB1        0.000
     65 H7         47.1400   16.5544  -10.5202 H         1 SUB1        0.000
     66 H8         49.4257   18.4149   -9.7534 H         1 SUB1        0.000
     67 H9         50.1084   18.0552  -12.0695 H         1 SUB1        0.000
     68 H10        48.3509   17.7730  -11.8283 H         1 SUB1        0.000
     69 H11        49.4688   16.3779  -12.0035 H         1 SUB1        0.000
@<TRIPOS>BOND
     1   21   20 1  
     2   21   24 1  
     3   21   22 1  
     4   22   23 2  
     5   24   25 1  
     6   25   26 1  
     7   25   27 1  
     8   29   28 1  
     9   29   32 1  
    10   29   30 1  
    11   30   31 ar 
    12   30   42 ar 
    13   32   33 1  
    14   33   34 2  
    15   33   35 1  
    16   35   38 ar 
    17   35   37 ar 
    18   37   39 ar 
    19   37   36 1  
    20   36   34 1  
    21   39   41 ar 
    22   41   40 ar 
    23   40   38 ar 
    24   22   28 am 
    25    6    7 1  
    26    6    8 1  
    27    6   15 1  
    28    7   17 1  
    29    8    9 1  
    30    8   10 1  
    31   10   11 1  
    32   10   12 1  
    33   12   13 1  
    34   12   14 1  
    35   14   15 1  
    36   14   16 1  
    37   17   18 ar 
    38   17   19 ar 
    39   17   20 1  
    40   20    1 1  
    41   21    2 1  
    42   24    3 1  
    43   24    4 1  
    44   25    5 1  
    45   26   43 1  
    46   26   44 1  
    47   26   45 1  
    48   27   46 1  
    49   27   47 1  
    50   27   48 1  
    51   28   49 1  
    52   29   50 1  
    53   32   51 1  
    54   32   52 1  
    55   34   53 1  
    56   36   54 1  
    57   38   55 1  
    58   39   56 1  
    59   40   57 1  
    60   41   58 1  
    61    6   59 1  
    62    8   60 1  
    63    9   61 1  
    64   10   62 1  
    65   11   63 1  
    66   12   64 1  
    67   13   65 1  
    68   14   66 1  
    69   16   67 1  
    70   16   68 1  
    71   16   69 1  
@<TRIPOS>SUBSTRUCTURE
     1 SUB1        1 GROUP

