### Name: 1tmn_ligand
### Creating user name: arthur
### Creation time: Tue Nov 27 11:30:22 2001


@<TRIPOS>MOLECULE
1tmn_ligand
   67    69     1     0     0
SMALL
USER_CHARGES


@<TRIPOS>ATOM
      1 CA         51.6340   18.0880   -5.7220 C.3       1 SUB1        0.000
      2 CB1        50.3130   18.1120   -6.5120 C.3       1 SUB1        0.000
      3 CG         49.8520   16.6610   -6.7000 C.3       1 SUB1        0.000
      4 CD         48.5260   16.4110   -7.4500 C.ar      1 SUB1        0.000
      5 CE1        48.5000   16.3550   -8.8380 C.ar      1 SUB1        0.000
      6 CE2        47.3940   16.1190   -6.7300 C.ar      1 SUB1        0.000
      7 CZ1        47.3130   16.0460   -9.5300 C.ar      1 SUB1        0.000
      8 CZ2        46.1950   15.8210   -7.4020 C.ar      1 SUB1        0.000
      9 CH         46.1420   15.7920   -8.8100 C.ar      1 SUB1        0.000
     10 CB2        52.5090   19.0800   -6.4520 C.2       1 SUB1        0.000
     11 OG1        53.3270   18.7000   -7.3160 O.co2     1 SUB1       -0.500
     12 OG2        52.3300   20.2880   -6.2750 O.co2     1 SUB1       -0.500
     13 N          51.5380   18.2350   -4.2180 N.4       1 SUB1        1.000
     14 CA         52.8370   18.1030   -3.5130 C.3       1 SUB1        0.000
     15 C          53.6810   16.8680   -3.8590 C.2       1 SUB1        0.000
     16 O          54.9390   16.9380   -3.9590 O.2       1 SUB1        0.000
     17 CB         52.5980   18.0910   -2.0020 C.3       1 SUB1        0.000
     18 CG         53.9410   18.2290   -1.3100 C.3       1 SUB1        0.000
     19 CD1        54.6280   19.5270   -1.7280 C.3       1 SUB1        0.000
     20 CD2        53.6860   18.1710    0.1900 C.3       1 SUB1        0.000
     21 N          52.9520   15.7650   -3.9830 N.am      1 SUB1        0.000
     22 CA         53.5300   14.4480   -4.2980 C.3       1 SUB1        0.000
     23 C          52.6430   13.5310   -5.1330 C.2       1 SUB1        0.000
     24 O          51.5720   14.0270   -5.6050 O.co2     1 SUB1       -0.500
     25 CB         54.1010   13.7350   -3.0370 C.3       1 SUB1        0.000
     26 CG         52.9430   13.2580   -2.1640 C.2       1 SUB1        0.000
     27 CD1        51.8320   13.9080   -1.8230 C.2       1 SUB1        0.000
     28 CD2        52.7980   11.9770   -1.6420 C.ar      1 SUB1        0.000
     29 NE1        50.8920   12.9890   -1.3140 N.pl3     1 SUB1        0.000
     30 CE2        51.4420   11.8400   -1.2860 C.ar      1 SUB1        0.000
     31 CE3        53.7230   10.9460   -1.4800 C.ar      1 SUB1        0.000
     32 CZ2        50.9040   10.6380   -0.8550 C.ar      1 SUB1        0.000
     33 CZ3        53.2130    9.7410   -0.9640 C.ar      1 SUB1        0.000
     34 CH2        51.8310    9.5840   -0.6900 C.ar      1 SUB1        0.000
     35 OXT        53.1420   12.4690   -5.6520 O.co2     1 SUB1       -0.500
     36 H          51.1572   19.1454   -4.0125 H         1 SUB1        0.000
     37 HA         53.4338   18.9906   -3.7699 H         1 SUB1        0.000
     38 HB2        52.1227   17.1438   -1.7074 H         1 SUB1        0.000
     39 HB1        51.9460   18.9312   -1.7212 H         1 SUB1        0.000
     40 HG         54.5872   17.3863   -1.5967 H         1 SUB1        0.000
     41 HD13       54.7952   19.5197   -2.8152 H         1 SUB1        0.000
     42 HD12       55.5940   19.6142   -1.2091 H         1 SUB1        0.000
     43 HD11       53.9898   20.3822   -1.4609 H         1 SUB1        0.000
     44 HD23       53.0243   18.9999    0.4817 H         1 SUB1        0.000
     45 HD22       54.6415   18.2578    0.7280 H         1 SUB1        0.000
     46 HD21       53.2080   17.2134    0.4439 H         1 SUB1        0.000
     47 H          51.9623   15.8321   -3.8563 H         1 SUB1        0.000
     48 HA         54.3998   14.6627   -4.9362 H         1 SUB1        0.000
     49 HB2        54.7258   14.4387   -2.4674 H         1 SUB1        0.000
     50 HB1        54.7091   12.8719   -3.3457 H         1 SUB1        0.000
     51 HD1        51.6743   14.9810   -1.9218 H         1 SUB1        0.000
     52 HE1        49.9303   13.2078   -1.0171 H         1 SUB1        0.000
     53 HE3        54.7696   11.0658   -1.7357 H         1 SUB1        0.000
     54 HZ2        49.8452   10.5146   -0.6580 H         1 SUB1        0.000
     55 HZ3        53.8899    8.9163   -0.7721 H         1 SUB1        0.000
     56 HH2        51.4727    8.6220   -0.3418 H         1 SUB1        0.000
     57 ****       52.0803   17.0940   -5.8730 H         1 SUB1        0.000
     58 ****       50.4721   18.5840   -7.4928 H         1 SUB1        0.000
     59 ****       49.5526   18.6765   -5.9524 H         1 SUB1        0.000
     60 ****       49.7491   16.2185   -5.6982 H         1 SUB1        0.000
     61 ****       50.6443   16.1356   -7.2533 H         1 SUB1        0.000
     62 ****       49.4076   16.5522   -9.3970 H         1 SUB1        0.000
     63 ****       47.4243   16.1181   -5.6464 H         1 SUB1        0.000
     64 ****       47.3074   16.0054  -10.6132 H         1 SUB1        0.000
     65 ****       45.2992   15.6107   -6.8290 H         1 SUB1        0.000
     66 ****       45.2122   15.5771   -9.3242 H         1 SUB1        0.000
     67 ****       50.9147   17.5236   -3.8694 H         1 SUB1        0.000
@<TRIPOS>BOND
     1   14   13 1  
     2   14   17 1  
     3   14   15 1  
     4   15   16 2  
     5   17   18 1  
     6   18   19 1  
     7   18   20 1  
     8   22   21 1  
     9   22   25 1  
    10   22   23 1  
    11   23   24 ar 
    12   23   35 ar 
    13   25   26 1  
    14   26   27 2  
    15   26   28 1  
    16   28   31 ar 
    17   28   30 ar 
    18   30   32 ar 
    19   30   29 1  
    20   29   27 1  
    21   32   34 ar 
    22   34   33 ar 
    23   33   31 ar 
    24   15   21 am 
    25    1    2 1  
    26    1   10 1  
    27    1   13 1  
    28    2    3 1  
    29    3    4 1  
    30    4    5 ar 
    31    4    6 ar 
    32    5    7 ar 
    33    6    8 ar 
    34    7    9 ar 
    35    8    9 ar 
    36   10   11 ar 
    37   10   12 ar 
    38   13   36 1  
    39   14   37 1  
    40   17   38 1  
    41   17   39 1  
    42   18   40 1  
    43   19   41 1  
    44   19   42 1  
    45   19   43 1  
    46   20   44 1  
    47   20   45 1  
    48   20   46 1  
    49   21   47 1  
    50   22   48 1  
    51   25   49 1  
    52   25   50 1  
    53   27   51 1  
    54   29   52 1  
    55   31   53 1  
    56   32   54 1  
    57   33   55 1  
    58   34   56 1  
    59    1   57 1  
    60    2   58 1  
    61    2   59 1  
    62    3   60 1  
    63    3   61 1  
    64    5   62 1  
    65    6   63 1  
    66    7   64 1  
    67    8   65 1  
    68    9   66 1  
    69   13   67 1  
@<TRIPOS>SUBSTRUCTURE
     1 SUB1        1 GROUP

