### Name: 1tnj_ligand
### Creating user name: arthur
### Creation time: Tue Nov 27 11:30:22 2001


@<TRIPOS>MOLECULE
1tnj_ligand
   21    21     1     0     0
SMALL
USER_CHARGES


@<TRIPOS>ATOM
      1 H1         28.5560   16.4858   17.6029 H         1 SUB1        0.000
      2 H2         28.2052   15.0032   19.5513 H         1 SUB1        0.000
      3 H3         28.9489   12.6460   19.4609 H         1 SUB1        0.000
      4 H4         30.0428   11.7709   17.4169 H         1 SUB1        0.000
      5 H5         30.3866   13.2547   15.4705 H         1 SUB1        0.000
      6 H6         30.8241   15.9657   15.0932 H         1 SUB1        0.000
      7 H7         29.3367   16.8814   15.5126 H         1 SUB1        0.000
      8 H8         28.5615   16.2926   13.5391 H         1 SUB1        0.000
      9 H9         28.3734   14.6411   14.2202 H         1 SUB1        0.000
     10 C1'        29.4980   14.9640   16.4240 C.ar      1 SUB1        0.000
     11 C6'        28.8830   15.4530   17.5640 C.ar      1 SUB1        0.000
     12 C5'        28.6850   14.6200   18.6580 C.ar      1 SUB1        0.000
     13 C4'        29.1020   13.2960   18.6070 C.ar      1 SUB1        0.000
     14 C3'        29.7170   12.8040   17.4580 C.ar      1 SUB1        0.000
     15 C2'        29.9120   13.6370   16.3670 C.ar      1 SUB1        0.000
     16 C2         29.7390   15.8900   15.2570 C.3       1 SUB1        0.000
     17 C1         29.0950   15.4330   13.9710 C.3       1 SUB1        0.000
     18 N          29.9900   14.9120   12.9550 N.4       1 SUB1        1.000
     19 HN1        30.7840   15.5790   12.9340 H         1 SUB1        0.000
     20 HN2        29.5970   14.9040   12.0000 H         1 SUB1        0.000
     21 HN3        30.3960   13.9960   13.2180 H         1 SUB1        0.000
@<TRIPOS>BOND
     1   11    1 1  
     2   12    2 1  
     3   13    3 1  
     4   14    4 1  
     5   15    5 1  
     6   16    6 1  
     7   16    7 1  
     8   17    8 1  
     9   17    9 1  
    10   11   10 ar 
    11   10   15 ar 
    12   10   16 1  
    13   11   12 ar 
    14   12   13 ar 
    15   13   14 ar 
    16   14   15 ar 
    17   16   17 1  
    18   17   18 1  
    19   18   19 1  
    20   18   20 1  
    21   18   21 1  
@<TRIPOS>SUBSTRUCTURE
     1 SUB1        1 GROUP

