### Name: 1xli_ligand
### Creating user name: arthur
### Creation time: Tue Nov 27 11:30:22 2001


@<TRIPOS>MOLECULE
1xli_ligand
   24    24     1     0     0
SMALL
USER_CHARGES


@<TRIPOS>ATOM
      1 H1         23.5881   75.6826    8.9522 H         1 SUB1        0.000
      2 H2         25.6766   74.7736    8.5905 H         1 SUB1        0.000
      3 H3         25.9440   73.9834   11.3299 H         1 SUB1        0.000
      4 H4         27.7578   75.7601    9.8502 H         1 SUB1        0.000
      5 H5         25.9325   76.3973   12.1406 H         1 SUB1        0.000
      6 H6         28.4282   77.5249   11.2854 H         1 SUB1        0.000
      7 H7         27.3411   78.0092   12.6309 H         1 SUB1        0.000
      8 H8         23.0098   76.2992   11.0674 H         1 SUB1        0.000
      9 H9         23.8164   73.4013    8.6382 H         1 SUB1        0.000
     10 H10        26.9306   72.3528    9.9960 H         1 SUB1        0.000
     11 H11        28.7277   74.3472   11.3789 H         1 SUB1        0.000
     12 H12        27.6708   79.6801   11.0967 H         1 SUB1        0.000
     13 C1         24.2930   75.6160    9.7940 C.3       1 SUB1        0.000
     14 C2         25.2210   74.4590    9.5410 C.3       1 SUB1        0.000
     15 C3         26.4390   74.2520   10.3850 C.3       1 SUB1        0.000
     16 C4         27.2480   75.4490   10.7740 C.3       1 SUB1        0.000
     17 C5         26.4920   76.6610   11.2310 C.3       1 SUB1        0.000
     18 C6         27.3990   77.8080   11.5510 C.3       1 SUB1        0.000
     19 S5         25.2900   77.1760    9.9130 S.3       1 SUB1        0.000
     20 O1         23.5680   75.5350   10.9840 O.3       1 SUB1        0.000
     21 O2         24.5810   73.2170    9.1710 O.3       1 SUB1        0.000
     22 O3         27.3960   73.1430   10.2440 O.3       1 SUB1        0.000
     23 O4         28.2630   75.1160   11.6880 O.3       1 SUB1        0.000
     24 O6         27.0650   78.9890   10.8560 O.3       1 SUB1        0.000
@<TRIPOS>BOND
     1   13    1 1  
     2   14    2 1  
     3   15    3 1  
     4   16    4 1  
     5   17    5 1  
     6   18    6 1  
     7   18    7 1  
     8   20    8 1  
     9   21    9 1  
    10   22   10 1  
    11   23   11 1  
    12   24   12 1  
    13   13   14 1  
    14   13   19 1  
    15   13   20 1  
    16   14   15 1  
    17   14   21 1  
    18   15   16 1  
    19   15   22 1  
    20   16   17 1  
    21   16   23 1  
    22   17   18 1  
    23   17   19 1  
    24   18   24 1  
@<TRIPOS>SUBSTRUCTURE
     1 SUB1        1 GROUP

