#	Name:			1zzz_ligand
#	Creating user name:	arthur
#	Creation time:		Tue Feb 26 00:04:06 2002

#	Modifying user name:	arthur
#	Modification time:	Tue Feb 26 00:04:29 2002

@<TRIPOS>MOLECULE
1zzz_ligand
   59    60     1     0     0
SMALL
USER_CHARGES


@<TRIPOS>ATOM
      1 S          24.0730    5.7250   29.9470 S.o2      1 SUB1        0.0000 
      2 O1         23.1510    6.2200   28.9260 O.2       1 SUB1        0.0000 
      3 O2         23.3610    4.9770   30.9810 O.2       1 SUB1        0.0000 
      4 N          25.1570    4.6820   29.2140 N.am      1 SUB1        0.0000 
      5 CA         25.5970    3.3910   29.6250 C.3       1 SUB1        0.0000 
      6 CB         26.1840    3.4820   31.0050 C.3       1 SUB1        0.0000 
      7 CG         26.4320    2.1540   31.6720 C.3       1 SUB1        0.0000 
      8 C          24.5370    2.2410   29.4950 C.2       1 SUB1        0.0000 
      9 CD         25.2710    1.1810   31.6400 C.3       1 SUB1        0.0000 
     10 O          23.7760    2.3820   28.5310 O.2       1 SUB1        0.0000 
     11 N          24.6040    1.1740   30.3100 N.am      1 SUB1        0.0000 
     12 CA         23.7020    0.0530   29.9470 C.3       1 SUB1        0.0000 
     13 C          22.4180    0.8670   30.2860 C.2       1 SUB1        0.0000 
     14 O          22.1470    1.3320   31.4330 O.2       1 SUB1        0.0000 
     15 C2         19.3380    2.1580   28.1910 C.3       1 SUB1        0.0000 
     16 C3         20.1240    2.0850   26.8650 C.3       1 SUB1        0.0000 
     17 N          21.2880    0.3550   29.5550 N.am      1 SUB1        0.0000 
     18 C15        19.9550    0.5250   29.9580 C.3       1 SUB1        0.0000 
     19 C16        19.4520   -0.5070   31.0730 C.3       1 SUB1        0.0000 
     20 O5         18.0560   -0.6290   31.1720 O.3       1 SUB1        0.0000 
     21 C17        19.1950    0.8040   28.7650 C.3       1 SUB1        0.0000 
     22 CZ         19.9900    3.7540   25.0540 C.cat     1 SUB1        0.0000 
     23 NE         20.2770    3.4130   26.3750 N.pl3     1 SUB1        0.0000 
     24 CD         20.9790    4.3780   27.3200 C.3       1 SUB1        0.0000 
     25 CG         20.1910    4.5320   28.6190 C.3       1 SUB1        0.0000 
     26 C1         20.0500    3.1780   29.1560 C.3       1 SUB1        0.0000 
     27 NH1        19.5410    2.8750   24.2120 N.pl3     1 SUB1        0.5000 
     28 NH2        20.1300    4.9700   24.7200 N.pl3     1 SUB1        0.5000 
     29 H1         24.5628    6.5004   30.3651 H         1 SUB1        0.0000 
     30 H2         25.5556    5.0149   28.3594 H         1 SUB1        0.0000 
     31 H3         26.4180    3.1152   28.9469 H         1 SUB1        0.0000 
     32 H4         25.4903    4.0578   31.6353 H         1 SUB1        0.0000 
     33 H5         27.1438    4.0147   30.9348 H         1 SUB1        0.0000 
     34 H6         26.6845    2.3457   32.7253 H         1 SUB1        0.0000 
     35 H7         27.2874    1.6775   31.1707 H         1 SUB1        0.0000 
     36 H8         24.5380    1.4734   32.4062 H         1 SUB1        0.0000 
     37 H9         25.6455    0.1699   31.8577 H         1 SUB1        0.0000 
     38 H10        23.7690   -0.2364   28.8879 H         1 SUB1        0.0000 
     39 H11        23.8348   -0.8371   30.5795 H         1 SUB1        0.0000 
     40 H12        18.3285    2.5408   27.9802 H         1 SUB1        0.0000 
     41 H13        19.5691    1.4783   26.1342 H         1 SUB1        0.0000 
     42 H14        21.1123    1.6349   27.0403 H         1 SUB1        0.0000 
     43 H15        21.4637   -0.1513   28.7107 H         1 SUB1        0.0000 
     44 H16        19.9396    1.4798   30.5040 H         1 SUB1        0.0000 
     45 H17        19.8368   -0.1729   32.0478 H         1 SUB1        0.0000 
     46 H18        19.8666   -1.4977   30.8351 H         1 SUB1        0.0000 
     47 H19        17.8404   -1.2564   31.8520 H         1 SUB1        0.0000 
     48 H20        19.5041    0.0810   27.9958 H         1 SUB1        0.0000 
     49 H21        18.1319    0.6533   29.0038 H         1 SUB1        0.0000 
     50 H22        21.0672    5.3603   26.8328 H         1 SUB1        0.0000 
     51 H23        21.9827    3.9915   27.5505 H         1 SUB1        0.0000 
     52 H24        19.2023    4.9706   28.4188 H         1 SUB1        0.0000 
     53 H25        20.7390    5.1709   29.3272 H         1 SUB1        0.0000 
     54 H26        21.0553    2.7923   29.3809 H         1 SUB1        0.0000 
     55 H27        19.4637    3.2372   30.0848 H         1 SUB1        0.0000 
     56 H28        19.3359    3.1500   23.2408 H         1 SUB1        0.0000 
     57 H29        19.3897    1.9022   24.5147 H         1 SUB1        0.0000 
     58 H30        20.4880    5.6535   25.4023 H         1 SUB1        0.0000 
     59 H31        19.8857    5.2736   23.7666 H         1 SUB1        0.0000 
@<TRIPOS>BOND
     1    1    3 2    
     2    1    2 2    
     3    5    4 1    
     4    8    5 1    
     5    5    6 1    
     6    7    6 1    
     7    9    7 1    
     8    8   10 2    
     9   13   12 1    
    10   12   11 1    
    11   13   14 2    
    12   15   26 1    
    13   21   15 1    
    14   15   16 1    
    15   16   23 1    
    16   23   22 ar   
    17   23   24 1    
    18   25   24 1    
    19   26   25 1    
    20   22   27 ar   
    21   22   28 ar   
    22   18   21 1    
    23   18   19 1    
    24   17   18 1    
    25   19   20 1    
    26    4    1 1    
    27   11    8 am   
    28   11    9 1    
    29   17   13 am   
    30    1   29 1    
    31    4   30 1    
    32    5   31 1    
    33    6   32 1    
    34    6   33 1    
    35    7   34 1    
    36    7   35 1    
    37    9   36 1    
    38    9   37 1    
    39   12   38 1    
    40   12   39 1    
    41   15   40 1    
    42   16   41 1    
    43   16   42 1    
    44   17   43 1    
    45   18   44 1    
    46   19   45 1    
    47   19   46 1    
    48   20   47 1    
    49   21   48 1    
    50   21   49 1    
    51   24   50 1    
    52   24   51 1    
    53   25   52 1    
    54   25   53 1    
    55   26   54 1    
    56   26   55 1    
    57   27   56 1    
    58   27   57 1    
    59   28   58 1    
    60   28   59 1    
@<TRIPOS>SUBSTRUCTURE
     1 SUB1        1 GROUP             0 ****  ****    0 ROOT 
