### Name: 2csc_ligand
### Creating user name: arthur
### Creation time: Tue Nov 27 11:30:22 2001


@<TRIPOS>MOLECULE
2csc_ligand
   13    12     1     0     0
SMALL
USER_CHARGES


@<TRIPOS>ATOM
      1 H1         15.2398   -5.4317   -0.1408 H         1 SUB1        0.000
      2 H2         16.3796   -7.4993   -0.2118 H         1 SUB1        0.000
      3 H3         12.8683   -6.2467   -0.2400 H         1 SUB1        0.000
      4 H4         14.0145   -6.8719    0.9937 H         1 SUB1        0.000
      5 C1         14.4360   -5.5210   -2.0690 C.2       1 SUB1        0.000
      6 O1A        15.2230   -5.2270   -2.9670 O.co2     1 SUB1       -0.500
      7 O1B        13.1960   -5.3520   -2.2040 O.co2     1 SUB1       -0.500
      8 C2         14.9010   -6.2330   -0.8140 C.3       1 SUB1        0.000
      9 O2         16.1370   -7.0800   -1.0290 O.3       1 SUB1        0.000
     10 C3         13.7500   -6.8830   -0.0740 C.3       1 SUB1        0.000
     11 C4         13.3290   -8.3080   -0.4050 C.2       1 SUB1        0.000
     12 O4A        12.5080   -8.9100    0.3810 O.co2     1 SUB1       -0.500
     13 O4B        13.7540   -8.8800   -1.4550 O.co2     1 SUB1       -0.500
@<TRIPOS>BOND
     1    8    1 1  
     2    9    2 1  
     3   10    3 1  
     4   10    4 1  
     5    5    6 ar 
     6    5    7 ar 
     7    5    8 1  
     8    8    9 1  
     9    8   10 1  
    10   10   11 1  
    11   11   12 ar 
    12   11   13 ar 
@<TRIPOS>SUBSTRUCTURE
     1 SUB1        1 GROUP

