### Name: 2dbl_ligand
### Creating user name: arthur
### Creation time: Tue Nov 27 11:30:29 2001


@<TRIPOS>MOLECULE
2dbl_ligand
   67    70     1     0     0
SMALL
USER_CHARGES


@<TRIPOS>ATOM
      1 H1        -20.2707   42.3468  -15.2455 H         1 SUB1        0.000
      2 H2        -20.0667   44.1074  -15.5377 H         1 SUB1        0.000
      3 H3        -18.4274   43.2609  -16.9166 H         1 SUB1        0.000
      4 H4        -18.1059   41.8426  -15.8621 H         1 SUB1        0.000
      5 H5        -17.0792   44.6999  -15.5587 H         1 SUB1        0.000
      6 H6        -16.0673   43.8547  -13.3585 H         1 SUB1        0.000
      7 H7        -17.0747   42.3762  -13.5194 H         1 SUB1        0.000
      8 H8        -18.2179   45.1951  -13.6326 H         1 SUB1        0.000
      9 H9        -17.1507   44.8657  -11.4564 H         1 SUB1        0.000
     10 H10       -18.0931   43.3530  -11.2321 H         1 SUB1        0.000
     11 H11       -19.1279   46.1995  -11.4709 H         1 SUB1        0.000
     12 H12       -19.2186   45.1020  -10.0519 H         1 SUB1        0.000
     13 H13       -20.9257   43.7678  -11.0573 H         1 SUB1        0.000
     14 H14       -20.4896   45.3669  -13.6387 H         1 SUB1        0.000
     15 H15       -22.2277   42.9296  -13.2006 H         1 SUB1        0.000
     16 H16       -22.1082   43.9642  -14.6642 H         1 SUB1        0.000
     17 H17       -24.1608   44.3016  -13.0924 H         1 SUB1        0.000
     18 H18       -23.2725   45.7628  -13.6424 H         1 SUB1        0.000
     19 H19       -21.4271   46.5480  -12.1113 H         1 SUB1        0.000
     20 H20       -20.9849   47.3462  -10.0077 H         1 SUB1        0.000
     21 H21       -21.4025   45.7969   -9.2001 H         1 SUB1        0.000
     22 H22       -23.1884   48.0630   -9.8687 H         1 SUB1        0.000
     23 H23       -23.5670   46.5878   -8.9163 H         1 SUB1        0.000
     24 H24       -24.0306   47.1566  -11.8418 H         1 SUB1        0.000
     25 H25       -22.5084   43.2402  -11.0361 H         1 SUB1        0.000
     26 H26       -24.2233   43.6888  -10.7454 H         1 SUB1        0.000
     27 H27       -22.9406   44.2752   -9.6331 H         1 SUB1        0.000
     28 H28       -18.8016   41.4688  -13.0381 H         1 SUB1        0.000
     29 H29       -20.5880   41.6504  -12.9877 H         1 SUB1        0.000
     30 H30       -19.5779   42.3360  -11.6699 H         1 SUB1        0.000
     31 H31       -27.3818   45.8355  -11.1427 H         1 SUB1        0.000
     32 H32       -26.3077   45.9189  -12.5800 H         1 SUB1        0.000
     33 H33       -26.5647   47.3784  -11.5648 H         1 SUB1        0.000
     34 H34       -15.6194   40.2501  -17.4858 H         1 SUB1        0.000
     35 H35       -15.6097   40.5014  -15.7072 H         1 SUB1        0.000
     36 H36       -13.3745   41.4291  -17.5397 H         1 SUB1        0.000
     37 H37       -13.4046   39.8157  -16.7505 H         1 SUB1        0.000
     38 C1        -19.6090   43.2120  -15.0920 C.3       1 SUB1        0.000
     39 C2        -18.2840   42.9280  -15.8780 C.3       1 SUB1        0.000
     40 C3        -17.0210   43.6270  -15.3230 C.3       1 SUB1        0.000
     41 O3        -15.8150   43.1030  -15.9000 O.3       1 SUB1        0.000
     42 C4        -17.0020   43.4450  -13.7690 C.3       1 SUB1        0.000
     43 C5        -18.1920   44.1920  -13.1820 C.3       1 SUB1        0.000
     44 C6        -18.0910   44.3490  -11.6990 C.3       1 SUB1        0.000
     45 C7        -19.2540   45.1550  -11.1500 C.3       1 SUB1        0.000
     46 C8        -20.6460   44.6780  -11.6080 C.3       1 SUB1        0.000
     47 C9        -20.6780   44.4100  -13.1300 C.3       1 SUB1        0.000
     48 C10       -19.5160   43.4610  -13.5270 C.3       1 SUB1        0.000
     49 C11       -22.0670   43.9550  -13.5650 C.3       1 SUB1        0.000
     50 C12       -23.2140   44.8570  -13.0210 C.3       1 SUB1        0.000
     51 C13       -23.0010   45.2830  -11.5450 C.3       1 SUB1        0.000
     52 C14       -21.6360   45.7790  -11.3530 C.3       1 SUB1        0.000
     53 C15       -21.6730   46.4880  -10.0120 C.3       1 SUB1        0.000
     54 C16       -23.1430   46.9640   -9.8590 C.3       1 SUB1        0.000
     55 C17       -23.9250   46.3880  -11.0620 C.3       1 SUB1        0.000
     56 C18       -23.1810   44.0340  -10.6790 C.3       1 SUB1        0.000
     57 C19       -19.6290   42.1340  -12.7500 C.3       1 SUB1        0.000
     58 C20       -25.3060   45.9000  -10.7100 C.2       1 SUB1        0.000
     59 O20       -25.5100   45.1730   -9.7510 O.2       1 SUB1        0.000
     60 C21       -26.4650   46.2830  -11.5540 C.3       1 SUB1        0.000
     61 CH1       -15.7850   42.3040  -16.8680 C.2       1 SUB1        0.000
     62 OH1       -16.1250   42.6330  -18.0320 O.2       1 SUB1        0.000
     63 CH2       -15.2480   40.8890  -16.6710 C.3       1 SUB1        0.000
     64 CH3       -13.7450   40.8590  -16.6750 C.3       1 SUB1        0.000
     65 CH4       -13.1960   41.4700  -15.4050 C.2       1 SUB1        0.000
     66 OH4       -13.9720   41.4280  -14.3970 O.co2     1 SUB1       -0.500
     67 OH5       -12.0220   41.9830  -15.4060 O.co2     1 SUB1       -0.500
@<TRIPOS>BOND
     1   38    1 1  
     2   38    2 1  
     3   39    3 1  
     4   39    4 1  
     5   40    5 1  
     6   42    6 1  
     7   42    7 1  
     8   43    8 1  
     9   44    9 1  
    10   44   10 1  
    11   45   11 1  
    12   45   12 1  
    13   46   13 1  
    14   47   14 1  
    15   49   15 1  
    16   49   16 1  
    17   50   17 1  
    18   50   18 1  
    19   52   19 1  
    20   53   20 1  
    21   53   21 1  
    22   54   22 1  
    23   54   23 1  
    24   55   24 1  
    25   56   25 1  
    26   56   26 1  
    27   56   27 1  
    28   57   28 1  
    29   57   29 1  
    30   57   30 1  
    31   60   31 1  
    32   60   32 1  
    33   60   33 1  
    34   63   34 1  
    35   63   35 1  
    36   64   36 1  
    37   64   37 1  
    38   38   39 1  
    39   38   48 1  
    40   39   40 1  
    41   40   41 1  
    42   40   42 1  
    43   41   61 1  
    44   42   43 1  
    45   43   44 1  
    46   43   48 1  
    47   44   45 1  
    48   45   46 1  
    49   46   47 1  
    50   46   52 1  
    51   47   48 1  
    52   47   49 1  
    53   48   57 1  
    54   49   50 1  
    55   50   51 1  
    56   51   52 1  
    57   51   55 1  
    58   51   56 1  
    59   52   53 1  
    60   53   54 1  
    61   54   55 1  
    62   55   58 1  
    63   58   59 2  
    64   58   60 1  
    65   61   62 2  
    66   61   63 1  
    67   63   64 1  
    68   64   65 1  
    69   65   66 ar 
    70   65   67 ar 
@<TRIPOS>SUBSTRUCTURE
     1 SUB1        1 GROUP

