### Name: 2er0_ligand
### Creating user name: arthur
### Creation time: Tue Nov 27 11:30:30 2001


@<TRIPOS>MOLECULE
2er0_ligand
  138   142     1     0     0
SMALL
USER_CHARGES


@<TRIPOS>ATOM
      1 CA          1.6070   20.5290   23.8140 C.3       1 SUB1        0.000
      2 CB          0.2090   21.1020   24.0810 C.3       1 SUB1        0.000
      3 CG1        -0.4260   21.6970   22.8230 C.3       1 SUB1        0.000
      4 CG2        -0.7880   20.0600   24.5950 C.3       1 SUB1        0.000
      5 C           2.1240   21.9550   24.0220 C.2       1 SUB1        0.000
      6 O           1.7970   22.6420   24.9860 O.2       1 SUB1        0.000
      7 N           2.9420   22.4360   23.1030 N.am      1 SUB1        0.000
      8 CA          3.4890   23.7950   23.2600 C.3       1 SUB1        0.000
      9 C           3.6050   24.5140   21.8990 C.2       1 SUB1        0.000
     10 O           4.7060   24.8940   21.4720 O.2       1 SUB1        0.000
     11 CB          4.8570   23.7060   23.9540 C.3       1 SUB1        0.000
     12 CG          4.8850   22.6870   25.1160 C.2       1 SUB1        0.000
     13 ND1         4.3660   22.9800   26.3800 N.pl3     1 SUB1        0.000
     14 CD2         5.3600   21.4100   25.2030 C.2       1 SUB1        0.000
     15 CE1         4.5340   21.9200   27.1570 C.2       1 SUB1        0.000
     16 NE2         5.1240   20.9770   26.4700 N.2       1 SUB1        0.000
     17 N           2.4880   24.7430   21.1630 N.am      1 SUB1        0.000
     18 CA          2.5300   25.3960   19.8490 C.3       1 SUB1        0.000
     19 C           3.0800   26.8110   19.8890 C.2       1 SUB1        0.000
     20 O           2.9930   27.4800   20.9690 O.2       1 SUB1        0.000
     21 CB          1.0930   25.4170   19.3910 C.3       1 SUB1        0.000
     22 CG          0.2490   24.7660   20.4720 C.3       1 SUB1        0.000
     23 CD          1.1440   24.3500   21.6040 C.3       1 SUB1        0.000
     24 N           3.5990   27.1810   18.7160 N.am      1 SUB1        0.000
     25 CA          4.1870   28.5050   18.4150 C.3       1 SUB1        0.000
     26 C           3.4760   29.1240   17.2060 C.2       1 SUB1        0.000
     27 O           3.1640   28.4330   16.2260 O.2       1 SUB1        0.000
     28 CB          5.6570   28.3650   17.9900 C.3       1 SUB1        0.000
     29 CG          6.6470   28.2490   19.1480 C.ar      1 SUB1        0.000
     30 CD1         6.1880   28.2210   20.4680 C.ar      1 SUB1        0.000
     31 CD2         8.0190   28.1670   18.8760 C.ar      1 SUB1        0.000
     32 CE1         7.1030   28.1040   21.5220 C.ar      1 SUB1        0.000
     33 CE2         8.9330   28.0480   19.9290 C.ar      1 SUB1        0.000
     34 CZ          8.4750   28.0150   21.2520 C.ar      1 SUB1        0.000
     35 N           3.2320   30.4140   17.2920 N.am      1 SUB1        0.000
     36 CA          2.6040   31.1570   16.1900 C.3       1 SUB1        0.000
     37 C           3.3310   32.4810   15.9830 C.2       1 SUB1        0.000
     38 O           3.0200   33.4860   16.6420 O.2       1 SUB1        0.000
     39 CB          1.1250   31.4180   16.4680 C.3       1 SUB1        0.000
     40 CG          0.3070   31.4440   15.1760 C.2       1 SUB1        0.000
     41 ND1         0.9190   31.5190   13.9280 N.pl3     1 SUB1        0.000
     42 CD2        -1.0300   31.4050   14.9390 C.2       1 SUB1        0.000
     43 CE1        -0.0250   31.5230   13.0050 C.2       1 SUB1        0.000
     44 NE2        -1.1930   31.4560   13.5910 N.2       1 SUB1        0.000
     45 N           4.2800   32.4090   15.0630 N.am      1 SUB1        0.000
     46 CA          5.1410   33.5410   14.6890 C.3       1 SUB1        0.000
     47 CB          6.6250   33.1820   14.8800 C.3       1 SUB1        0.000
     48 CG          6.9860   32.5990   16.2540 C.3       1 SUB1        0.000
     49 CD1         6.4840   33.5280   17.3700 C.3       1 SUB1        0.000
     50 CD2         8.3860   32.4700   16.3340 C.3       1 SUB1        0.000
     51 CE1         6.8590   32.9680   18.7500 C.3       1 SUB1        0.000
     52 CE2         8.8000   31.8410   17.6700 C.3       1 SUB1        0.000
     53 CZ          8.3660   32.7370   18.8260 C.3       1 SUB1        0.000
     54 CH          4.9870   33.8990   13.1960 C.3       1 SUB1        0.000
     55 OH          5.4740   32.8380   12.3880 O.3       1 SUB1        0.000
     56 CM          3.5220   34.1400   12.8070 C.3       1 SUB1        0.000
     57 C           3.0610   35.5360   13.2460 C.2       1 SUB1        0.000
     58 O           2.9260   35.8300   14.4350 O.2       1 SUB1        0.000
     59 N           2.8230   36.4110   12.2820 N.am      1 SUB1        0.000
     60 CA          2.3090   37.7560   12.6010 C.3       1 SUB1        0.000
     61 C           0.7750   37.6750   12.6530 C.2       1 SUB1        0.000
     62 O           0.1300   38.2210   13.5570 O.2       1 SUB1        0.000
     63 CB          2.7180   38.7800   11.5350 C.3       1 SUB1        0.000
     64 CG          3.8730   39.7450   11.9090 C.3       1 SUB1        0.000
     65 CD1         4.0160   40.8950   10.8920 C.3       1 SUB1        0.000
     66 CD2         3.7200   40.4410   13.2640 C.3       1 SUB1        0.000
     67 N           0.1560   37.0430   11.7750 N.am      1 SUB1        0.000
     68 H           3.1879   21.8823   22.3074 H         1 SUB1        0.000
     69 HA          2.8074   24.3760   23.8986 H         1 SUB1        0.000
     70 HB2         5.1117   24.6988   24.3534 H         1 SUB1        0.000
     71 HB1         5.6085   23.4069   23.2085 H         1 SUB1        0.000
     72 HD1         3.9274   23.8689   26.6600 H         1 SUB1        0.000
     73 HD2         5.8389   20.8435   24.4057 H         1 SUB1        0.000
     74 HE1         4.2296   21.8461   28.2000 H         1 SUB1        0.000
     75 HA          3.1446   24.7995   19.1588 H         1 SUB1        0.000
     76 HB2         0.9924   24.8563   18.4500 H         1 SUB1        0.000
     77 HB1         0.7654   26.4555   19.2357 H         1 SUB1        0.000
     78 HG1        -0.4998   25.4838   20.8380 H         1 SUB1        0.000
     79 HG2        -0.2607   23.8824   20.0604 H         1 SUB1        0.000
     80 HD1         0.8690   24.8736   22.5315 H         1 SUB1        0.000
     81 HD2         1.0887   23.2634   21.7662 H         1 SUB1        0.000
     82 H           3.5896   26.5061   17.9782 H         1 SUB1        0.000
     83 HA          4.0998   29.1581   19.2958 H         1 SUB1        0.000
     84 HB2         5.9276   29.2497   17.3950 H         1 SUB1        0.000
     85 HB1         5.7496   27.4625   17.3680 H         1 SUB1        0.000
     86 HD1         5.1263   28.2897   20.6755 H         1 SUB1        0.000
     87 HD2         8.3720   28.1957   17.8515 H         1 SUB1        0.000
     88 HE1         6.7497   28.0823   22.5466 H         1 SUB1        0.000
     89 HE2         9.9947   27.9814   19.7207 H         1 SUB1        0.000
     90 HZ          9.1825   27.9205   22.0678 H         1 SUB1        0.000
     91 H           3.4803   30.9018   18.1289 H         1 SUB1        0.000
     92 HA          2.6871   30.5578   15.2713 H         1 SUB1        0.000
     93 HB2         1.0227   32.3887   16.9752 H         1 SUB1        0.000
     94 HB1         0.7379   30.6211   17.1200 H         1 SUB1        0.000
     95 HD1         1.9333   31.5637   13.7546 H         1 SUB1        0.000
     96 HD2        -1.8199   31.3445   15.6862 H         1 SUB1        0.000
     97 HE1         0.1415   31.5738   11.9300 H         1 SUB1        0.000
     98 H           2.9931   36.1581   11.3296 H         1 SUB1        0.000
     99 HA          2.7007   38.0749   13.5782 H         1 SUB1        0.000
    100 HB2         1.8338   39.3916   11.3025 H         1 SUB1        0.000
    101 HB1         3.0251   38.2233   10.6373 H         1 SUB1        0.000
    102 HG          4.8006   39.1539   11.9206 H         1 SUB1        0.000
    103 HD13        4.2349   40.4796    9.8972 H         1 SUB1        0.000
    104 HD12        4.8374   41.5580   11.2013 H         1 SUB1        0.000
    105 HD11        3.0778   41.4678   10.8519 H         1 SUB1        0.000
    106 HD23        2.8017   41.0465   13.2635 H         1 SUB1        0.000
    107 HD22        4.5885   41.0922   13.4419 H         1 SUB1        0.000
    108 HD21        3.6599   39.6844   14.0602 H         1 SUB1        0.000
    109 H          -0.8415   37.0966   11.7299 H         1 SUB1        0.000
    110 ****        1.7565   20.1252   22.8018 H         1 SUB1        0.000
    111 ****        1.9569   19.7966   24.5564 H         1 SUB1        0.000
    112 ****        0.3152   21.8937   24.8373 H         1 SUB1        0.000
    113 ****       -1.4229   22.0925   23.0675 H         1 SUB1        0.000
    114 ****       -0.5199   20.9153   22.0548 H         1 SUB1        0.000
    115 ****        0.2081   22.5111   22.4421 H         1 SUB1        0.000
    116 ****       -0.3898   19.5898   25.5062 H         1 SUB1        0.000
    117 ****       -0.9449   19.2911   23.8242 H         1 SUB1        0.000
    118 ****       -1.7456   20.5504   24.8240 H         1 SUB1        0.000
    119 ****        4.4193   31.5358   14.5960 H         1 SUB1        0.000
    120 ****        4.8794   34.4094   15.3115 H         1 SUB1        0.000
    121 ****        7.2180   34.0966   14.7322 H         1 SUB1        0.000
    122 ****        6.8970   32.4409   14.1140 H         1 SUB1        0.000
    123 ****        6.5182   31.6099   16.3675 H         1 SUB1        0.000
    124 ****        5.3898   33.6169   17.3013 H         1 SUB1        0.000
    125 ****        6.9411   34.5209   17.2466 H         1 SUB1        0.000
    126 ****        8.8454   33.4656   16.2466 H         1 SUB1        0.000
    127 ****        8.7368   31.8307   15.5105 H         1 SUB1        0.000
    128 ****        6.3354   32.0141   18.9109 H         1 SUB1        0.000
    129 ****        6.5606   33.6859   19.5282 H         1 SUB1        0.000
    130 ****        9.8932   31.7211   17.6928 H         1 SUB1        0.000
    131 ****        8.3208   30.8562   17.7729 H         1 SUB1        0.000
    132 ****        8.6151   32.2508   19.7807 H         1 SUB1        0.000
    133 ****        8.8892   33.7023   18.7586 H         1 SUB1        0.000
    134 ****        5.5673   34.8111   12.9929 H         1 SUB1        0.000
    135 ****        5.3752   33.0670   11.4713 H         1 SUB1        0.000
    136 ****        2.8907   33.3825   13.2945 H         1 SUB1        0.000
    137 ****        3.4206   34.0542   11.7151 H         1 SUB1        0.000
    138 ****        0.6569   36.4823   11.1156 H         1 SUB1        0.000
@<TRIPOS>BOND
     1    8    7 1  
     2    8   11 1  
     3    8    9 1  
     4    9   10 2  
     5   11   12 1  
     6   12   13 1  
     7   12   14 2  
     8   14   16 1  
     9   16   15 2  
    10   15   13 1  
    11   18   19 1  
    12   18   21 1  
    13   18   17 1  
    14   17   23 1  
    15   23   22 1  
    16   22   21 1  
    17   19   20 2  
    18    9   17 am 
    19   25   24 1  
    20   25   28 1  
    21   25   26 1  
    22   26   27 2  
    23   28   29 1  
    24   29   30 ar 
    25   29   31 ar 
    26   31   33 ar 
    27   33   34 ar 
    28   34   32 ar 
    29   32   30 ar 
    30   19   24 am 
    31   36   35 1  
    32   36   39 1  
    33   36   37 1  
    34   37   38 2  
    35   39   40 1  
    36   40   41 1  
    37   40   42 2  
    38   42   44 1  
    39   44   43 2  
    40   43   41 1  
    41   26   35 am 
    42   60   59 1  
    43   60   63 1  
    44   60   61 1  
    45   61   62 2  
    46   63   64 1  
    47   64   65 1  
    48   64   66 1  
    49   61   67 am 
    50    1    2 1  
    51    1    5 1  
    52    2    3 1  
    53    2    4 1  
    54    5    6 2  
    55    5    7 am 
    56   37   45 am 
    57   45   46 1  
    58   46   47 1  
    59   46   54 1  
    60   47   48 1  
    61   48   49 1  
    62   48   50 1  
    63   49   51 1  
    64   50   52 1  
    65   51   53 1  
    66   52   53 1  
    67   54   55 1  
    68   54   56 1  
    69   56   57 1  
    70   57   58 2  
    71   57   59 am 
    72    7   68 1  
    73    8   69 1  
    74   11   70 1  
    75   11   71 1  
    76   13   72 1  
    77   14   73 1  
    78   15   74 1  
    79   18   75 1  
    80   21   76 1  
    81   21   77 1  
    82   22   78 1  
    83   22   79 1  
    84   23   80 1  
    85   23   81 1  
    86   24   82 1  
    87   25   83 1  
    88   28   84 1  
    89   28   85 1  
    90   30   86 1  
    91   31   87 1  
    92   32   88 1  
    93   33   89 1  
    94   34   90 1  
    95   35   91 1  
    96   36   92 1  
    97   39   93 1  
    98   39   94 1  
    99   41   95 1  
   100   42   96 1  
   101   43   97 1  
   102   59   98 1  
   103   60   99 1  
   104   63  100 1  
   105   63  101 1  
   106   64  102 1  
   107   65  103 1  
   108   65  104 1  
   109   65  105 1  
   110   66  106 1  
   111   66  107 1  
   112   66  108 1  
   113   67  109 1  
   114    1  110 1  
   115    1  111 1  
   116    2  112 1  
   117    3  113 1  
   118    3  114 1  
   119    3  115 1  
   120    4  116 1  
   121    4  117 1  
   122    4  118 1  
   123   45  119 1  
   124   46  120 1  
   125   47  121 1  
   126   47  122 1  
   127   48  123 1  
   128   49  124 1  
   129   49  125 1  
   130   50  126 1  
   131   50  127 1  
   132   51  128 1  
   133   51  129 1  
   134   52  130 1  
   135   52  131 1  
   136   53  132 1  
   137   53  133 1  
   138   54  134 1  
   139   55  135 1  
   140   56  136 1  
   141   56  137 1  
   142   67  138 1  
@<TRIPOS>SUBSTRUCTURE
     1 SUB1        1 GROUP

