### Name: 2er7_ligand
### Creating user name: arthur
### Creation time: Tue Nov 27 11:30:23 2001


@<TRIPOS>MOLECULE
2er7_ligand
  159   163     1     0     0
SMALL
USER_CHARGES


@<TRIPOS>ATOM
      1 OT1         2.1300   22.0080   24.7190 O.2       1 SUB1        0.000
      2 CT1         2.7910   21.4980   23.8270 C.2       1 SUB1        0.000
      3 OT2         2.7710   20.1880   23.3340 O.3       1 SUB1        0.000
      4 CT2         1.8290   19.2000   23.8170 C.3       1 SUB1        0.000
      5 CT3         2.1830   17.9220   23.0700 C.3       1 SUB1        0.000
      6 CT4         0.3760   19.5490   23.6320 C.3       1 SUB1        0.000
      7 CT5         2.1150   19.0680   25.3200 C.3       1 SUB1        0.000
      8 N           3.6990   22.1990   23.1000 N.am      1 SUB1        0.000
      9 CA          3.9800   23.6200   23.4250 C.3       1 SUB1        0.000
     10 C           4.1360   24.4030   22.0970 C.2       1 SUB1        0.000
     11 O           5.2180   24.8680   21.8550 O.2       1 SUB1        0.000
     12 CB          5.3200   23.7090   24.1630 C.3       1 SUB1        0.000
     13 CG          5.2700   22.7890   25.4010 C.2       1 SUB1        0.000
     14 ND1         4.5210   22.9550   26.5580 N.pl3     1 SUB1        0.000
     15 CD2         6.0030   21.6100   25.5030 C.2       1 SUB1        0.000
     16 CE1         4.7890   21.8810   27.4080 C.2       1 SUB1        0.000
     17 NE2         5.6990   21.0640   26.7360 N.2       1 SUB1        0.000
     18 N           2.8670   24.4070   21.4330 N.am      1 SUB1        0.000
     19 CA          3.1550   24.8520   20.0700 C.3       1 SUB1        0.000
     20 C           3.3460   26.3610   19.9620 C.2       1 SUB1        0.000
     21 O           2.8740   27.1080   20.8260 O.2       1 SUB1        0.000
     22 CB          1.9120   24.4660   19.3100 C.3       1 SUB1        0.000
     23 CG          0.7920   24.1100   20.2040 C.3       1 SUB1        0.000
     24 CD          1.3030   24.2240   21.5810 C.3       1 SUB1        0.000
     25 N           4.0060   26.7340   18.8600 N.am      1 SUB1        0.000
     26 CA          4.3870   28.1290   18.6390 C.3       1 SUB1        0.000
     27 C           3.4880   28.7100   17.5260 C.2       1 SUB1        0.000
     28 O           3.0630   27.9610   16.6520 O.2       1 SUB1        0.000
     29 CB          5.8360   28.2190   18.1240 C.3       1 SUB1        0.000
     30 CG          6.8800   28.1910   19.2550 C.ar      1 SUB1        0.000
     31 CD1         7.6140   29.2890   19.6340 C.ar      1 SUB1        0.000
     32 CD2         7.0710   26.9790   19.8960 C.ar      1 SUB1        0.000
     33 CE1         8.5390   29.2050   20.6590 C.ar      1 SUB1        0.000
     34 CE2         7.9940   26.8660   20.9390 C.ar      1 SUB1        0.000
     35 CZ          8.7330   27.9880   21.3180 C.ar      1 SUB1        0.000
     36 N           3.2280   30.0060   17.6180 N.am      1 SUB1        0.000
     37 CA          2.4620   30.5890   16.4660 C.3       1 SUB1        0.000
     38 C           3.0860   31.9600   16.1590 C.2       1 SUB1        0.000
     39 O           2.6760   32.9920   16.7540 O.2       1 SUB1        0.000
     40 CB          1.0140   30.7440   16.9060 C.3       1 SUB1        0.000
     41 CG          0.0500   31.2630   15.8830 C.2       1 SUB1        0.000
     42 ND1         0.2260   31.2330   14.4850 N.pl3     1 SUB1        0.000
     43 CD2        -1.1720   31.8530   16.2140 C.2       1 SUB1        0.000
     44 CE1        -0.9060   31.8260   13.9360 C.2       1 SUB1        0.000
     45 NE2        -1.7280   32.1980   14.9860 N.2       1 SUB1        0.000
     46 CD1         6.1570   33.8610   17.9690 C.3       1 SUB1        0.000
     47 CD2         8.0500   32.3340   17.2510 C.3       1 SUB1        0.000
     48 C1G         6.6030   32.7450   17.0490 C.3       1 SUB1        0.000
     49 C1B         6.3630   33.0000   15.5540 C.3       1 SUB1        0.000
     50 C1A         4.9090   33.2700   15.1590 C.3       1 SUB1        0.000
     51 CS          4.7580   33.7700   13.7050 C.3       1 SUB1        0.000
     52 N           4.1240   32.0040   15.3100 N.am      1 SUB1        0.000
     53 OS          5.3750   32.8860   12.8120 O.3       1 SUB1        0.000
     54 CT          3.2500   33.8860   13.3470 C.3       1 SUB1        0.000
     55 CA          3.0010   34.9920   12.3230 C.3       1 SUB1        0.000
     56 CB          1.6710   34.7930   11.5780 C.3       1 SUB1        0.000
     57 CG1         0.5070   34.4780   12.5660 C.3       1 SUB1        0.000
     58 CG2         1.7480   33.6550   10.5740 C.3       1 SUB1        0.000
     59 C           2.9850   36.3340   13.0190 C.2       1 SUB1        0.000
     60 O           2.5570   36.4610   14.1710 O.2       1 SUB1        0.000
     61 N           3.4320   37.3210   12.2850 N.am      1 SUB1        0.000
     62 CA          3.1800   38.6710   12.8070 C.3       1 SUB1        0.000
     63 C           1.7400   39.0440   12.8860 C.2       1 SUB1        0.000
     64 O           1.0240   38.7070   11.9550 O.2       1 SUB1        0.000
     65 CB          4.0200   39.6750   12.0440 C.3       1 SUB1        0.000
     66 CG1         3.8400   41.0800   12.6310 C.3       1 SUB1        0.000
     67 CG2         3.7550   39.6460   10.5620 C.3       1 SUB1        0.000
     68 CD1         4.7470   42.1220   11.9710 C.3       1 SUB1        0.000
     69 N           1.2320   39.6980   13.9280 N.am      1 SUB1        0.000
     70 CA         -0.1020   40.1470   13.9730 C.3       1 SUB1        0.000
     71 C          -0.3070   41.6320   14.0480 C.2       1 SUB1        0.000
     72 O          -1.4320   42.0520   13.7740 O.co2     1 SUB1       -0.500
     73 CB         -1.1380   39.3810   14.7320 C.3       1 SUB1        0.000
     74 CG         -2.4120   39.6450   13.8810 C.2       1 SUB1        0.000
     75 ND1        -3.2800   40.7240   14.0290 N.pl3     1 SUB1        0.000
     76 CD2        -2.8720   38.8830   12.8100 C.2       1 SUB1        0.000
     77 CE1        -4.2770   40.6170   13.0590 C.2       1 SUB1        0.000
     78 NE2        -4.0300   39.4740   12.2980 N.2       1 SUB1        0.000
     79 OXT         0.7150   42.3470   14.4020 O.co2     1 SUB1       -0.500
     80 H           4.1800   21.7564   22.3432 H         1 SUB1        0.000
     81 HA          3.1695   24.0430   24.0367 H         1 SUB1        0.000
     82 HB2         5.4984   24.7468   24.4810 H         1 SUB1        0.000
     83 HB1         6.1319   23.3856   23.4950 H         1 SUB1        0.000
     84 HD1         3.8787   23.7357   26.7550 H         1 SUB1        0.000
     85 HD2         6.6824   21.1987   24.7579 H         1 SUB1        0.000
     86 HE1         4.3707   21.7137   28.3995 H         1 SUB1        0.000
     87 HA          4.0446   24.3393   19.6754 H         1 SUB1        0.000
     88 HB2         2.1430   23.6005   18.6717 H         1 SUB1        0.000
     89 HB1         1.6053   25.3143   18.6805 H         1 SUB1        0.000
     90 HG1        -0.0497   24.8018   20.0525 H         1 SUB1        0.000
     91 HG2         0.4602   23.0801   20.0059 H         1 SUB1        0.000
     92 HD1         0.8593   25.0950   22.0855 H         1 SUB1        0.000
     93 HD2         1.0743   23.3129   22.1534 H         1 SUB1        0.000
     94 H           4.2435   26.0461   18.1741 H         1 SUB1        0.000
     95 HA          4.2752   28.7022   19.5712 H         1 SUB1        0.000
     96 HB2         5.9512   29.1588   17.5641 H         1 SUB1        0.000
     97 HB1         6.0230   27.3674   17.4533 H         1 SUB1        0.000
     98 HD1         7.4662   30.2335   19.1230 H         1 SUB1        0.000
     99 HD2         6.5002   26.1110   19.5865 H         1 SUB1        0.000
    100 HE1         9.1107   30.0789   20.9497 H         1 SUB1        0.000
    101 HE2         8.1344   25.9190   21.4474 H         1 SUB1        0.000
    102 HZ          9.4562   27.9154   22.1222 H         1 SUB1        0.000
    103 H           3.5213   30.5568   18.3995 H         1 SUB1        0.000
    104 HA          2.5225   29.9357   15.5831 H         1 SUB1        0.000
    105 HB2         0.9979   31.4367   17.7603 H         1 SUB1        0.000
    106 HB1         0.6564   29.7552   17.2290 H         1 SUB1        0.000
    107 HD1         1.0322   30.8486   13.9721 H         1 SUB1        0.000
    108 HD2        -1.5933   32.0076   17.2062 H         1 SUB1        0.000
    109 HE1        -1.1084   31.9709   12.8758 H         1 SUB1        0.000
    110 H           3.9147   37.1660   11.4230 H         1 SUB1        0.000
    111 HA          3.5462   38.6770   13.8442 H         1 SUB1        0.000
    112 HB          5.0736   39.3927   12.1863 H         1 SUB1        0.000
    113 HG12        4.0714   41.0437   13.7058 H         1 SUB1        0.000
    114 HG11        2.7930   41.3872   12.4915 H         1 SUB1        0.000
    115 HG23        3.9948   38.6481   10.1661 H         1 SUB1        0.000
    116 HG22        4.3823   40.3990   10.0625 H         1 SUB1        0.000
    117 HG21        2.6944   39.8697   10.3747 H         1 SUB1        0.000
    118 HD13        5.7994   41.8384   12.1190 H         1 SUB1        0.000
    119 HD12        4.5653   43.1070   12.4257 H         1 SUB1        0.000
    120 HD11        4.5280   42.1693   10.8941 H         1 SUB1        0.000
    121 H           1.8238   39.8785   14.7136 H         1 SUB1        0.000
    122 HA         -0.4093   39.9354   12.9382 H         1 SUB1        0.000
    123 HB2        -1.2525   39.7673   15.7556 H         1 SUB1        0.000
    124 HB1        -0.8962   38.3086   14.7698 H         1 SUB1        0.000
    125 HD1        -3.1998   41.4717   14.7329 H         1 SUB1        0.000
    126 HD2        -2.4051   37.9743   12.4329 H         1 SUB1        0.000
    127 HE1        -5.1069   41.3081   12.9195 H         1 SUB1        0.000
    128 ****        1.5056   17.1142   23.3840 H         1 SUB1        0.000
    129 ****        3.2212   17.6394   23.2984 H         1 SUB1        0.000
    130 ****        2.0779   18.0887   21.9878 H         1 SUB1        0.000
    131 ****       -0.2498   18.7367   24.0303 H         1 SUB1        0.000
    132 ****        0.1646   19.6831   22.5609 H         1 SUB1        0.000
    133 ****        0.1516   20.4820   24.1697 H         1 SUB1        0.000
    134 ****        1.4309   18.3272   25.7597 H         1 SUB1        0.000
    135 ****        1.9643   20.0418   25.8089 H         1 SUB1        0.000
    136 ****        3.1546   18.7403   25.4681 H         1 SUB1        0.000
    137 ****        6.3707   33.5839   19.0119 H         1 SUB1        0.000
    138 ****        5.0763   34.0264   17.8477 H         1 SUB1        0.000
    139 ****        6.6999   34.7837   17.7162 H         1 SUB1        0.000
    140 ****        8.3018   31.5229   16.5519 H         1 SUB1        0.000
    141 ****        8.1910   31.9843   18.2843 H         1 SUB1        0.000
    142 ****        8.7059   33.1968   17.0631 H         1 SUB1        0.000
    143 ****        5.9859   31.8755   17.3196 H         1 SUB1        0.000
    144 ****        6.7064   32.1144   14.9993 H         1 SUB1        0.000
    145 ****        6.9627   33.8734   15.2581 H         1 SUB1        0.000
    146 ****        4.5009   34.0353   15.8356 H         1 SUB1        0.000
    147 ****        5.2301   34.7595   13.6157 H         1 SUB1        0.000
    148 ****        4.3726   31.1935   14.7796 H         1 SUB1        0.000
    149 ****        5.2721   33.2092   11.9246 H         1 SUB1        0.000
    150 ****        2.6818   34.1112   14.2616 H         1 SUB1        0.000
    151 ****        2.9072   32.9281   12.9289 H         1 SUB1        0.000
    152 ****        3.8197   34.9786   11.5885 H         1 SUB1        0.000
    153 ****        1.4390   35.7241   11.0402 H         1 SUB1        0.000
    154 ****       -0.4269   34.3419   12.0009 H         1 SUB1        0.000
    155 ****        0.3896   35.3129   13.2725 H         1 SUB1        0.000
    156 ****        0.7368   33.5569   13.1217 H         1 SUB1        0.000
    157 ****        2.5629   33.8495    9.8612 H         1 SUB1        0.000
    158 ****        0.7949   33.5809   10.0299 H         1 SUB1        0.000
    159 ****        1.9420   32.7109   11.1040 H         1 SUB1        0.000
@<TRIPOS>BOND
     1    9    8 1  
     2    9   12 1  
     3    9   10 1  
     4   10   11 2  
     5   12   13 1  
     6   13   14 1  
     7   13   15 2  
     8   15   17 1  
     9   17   16 2  
    10   16   14 1  
    11   19   20 1  
    12   19   22 1  
    13   19   18 1  
    14   18   24 1  
    15   24   23 1  
    16   23   22 1  
    17   20   21 2  
    18   18   10 am 
    19   26   25 1  
    20   26   29 1  
    21   26   27 1  
    22   27   28 2  
    23   29   30 1  
    24   30   31 ar 
    25   30   32 ar 
    26   32   34 ar 
    27   34   35 ar 
    28   35   33 ar 
    29   33   31 ar 
    30   25   20 am 
    31   37   36 1  
    32   37   40 1  
    33   37   38 1  
    34   38   39 2  
    35   40   41 1  
    36   41   42 1  
    37   41   43 2  
    38   43   45 1  
    39   45   44 2  
    40   44   42 1  
    41   36   27 am 
    42   62   61 1  
    43   62   65 1  
    44   62   63 1  
    45   63   64 2  
    46   65   67 1  
    47   65   66 1  
    48   66   68 1  
    49   70   69 1  
    50   70   73 1  
    51   70   71 1  
    52   71   72 ar 
    53   71   79 ar 
    54   73   74 1  
    55   74   75 1  
    56   74   76 2  
    57   76   78 1  
    58   78   77 2  
    59   77   75 1  
    60   63   69 am 
    61    1    2 2  
    62    2    3 1  
    63    3    4 1  
    64    4    5 1  
    65    4    6 1  
    66    4    7 1  
    67    8    2 am 
    68   46   48 1  
    69   48   49 1  
    70   49   50 1  
    71   50   51 1  
    72   50   52 1  
    73   51   53 1  
    74   51   54 1  
    75   52   38 am 
    76   54   55 1  
    77   55   56 1  
    78   55   59 1  
    79   56   57 1  
    80   56   58 1  
    81   59   60 2  
    82   59   61 am 
    83   48   47 1  
    84    8   80 1  
    85    9   81 1  
    86   12   82 1  
    87   12   83 1  
    88   14   84 1  
    89   15   85 1  
    90   16   86 1  
    91   19   87 1  
    92   22   88 1  
    93   22   89 1  
    94   23   90 1  
    95   23   91 1  
    96   24   92 1  
    97   24   93 1  
    98   25   94 1  
    99   26   95 1  
   100   29   96 1  
   101   29   97 1  
   102   31   98 1  
   103   32   99 1  
   104   33  100 1  
   105   34  101 1  
   106   35  102 1  
   107   36  103 1  
   108   37  104 1  
   109   40  105 1  
   110   40  106 1  
   111   42  107 1  
   112   43  108 1  
   113   44  109 1  
   114   61  110 1  
   115   62  111 1  
   116   65  112 1  
   117   66  113 1  
   118   66  114 1  
   119   67  115 1  
   120   67  116 1  
   121   67  117 1  
   122   68  118 1  
   123   68  119 1  
   124   68  120 1  
   125   69  121 1  
   126   70  122 1  
   127   73  123 1  
   128   73  124 1  
   129   75  125 1  
   130   76  126 1  
   131   77  127 1  
   132    5  128 1  
   133    5  129 1  
   134    5  130 1  
   135    6  131 1  
   136    6  132 1  
   137    6  133 1  
   138    7  134 1  
   139    7  135 1  
   140    7  136 1  
   141   46  137 1  
   142   46  138 1  
   143   46  139 1  
   144   47  140 1  
   145   47  141 1  
   146   47  142 1  
   147   48  143 1  
   148   49  144 1  
   149   49  145 1  
   150   50  146 1  
   151   51  147 1  
   152   52  148 1  
   153   53  149 1  
   154   54  150 1  
   155   54  151 1  
   156   55  152 1  
   157   56  153 1  
   158   57  154 1  
   159   57  155 1  
   160   57  156 1  
   161   58  157 1  
   162   58  158 1  
   163   58  159 1  
@<TRIPOS>SUBSTRUCTURE
     1 SUB1        1 GROUP

