### Name: 2er9_ligand
### Creating user name: arthur
### Creation time: Tue Nov 27 11:30:23 2001


@<TRIPOS>MOLECULE
2er9_ligand
  132   135     1     0     0
SMALL
USER_CHARGES


@<TRIPOS>ATOM
      1 OT1        32.9440   -4.9710  -11.3300 O.2       1 SUB1        0.000
      2 CT1        32.0340   -4.6980  -10.5550 C.2       1 SUB1        0.000
      3 OT2        30.6570   -4.7680  -10.8890 O.3       1 SUB1        0.000
      4 CT2        30.4470   -5.2750  -12.1930 C.3       1 SUB1        0.000
      5 CT3        30.8750   -4.2200  -13.2280 C.3       1 SUB1        0.000
      6 CT4        28.9400   -5.5710  -12.3680 C.3       1 SUB1        0.000
      7 CT5        31.2390   -6.5710  -12.4030 C.3       1 SUB1        0.000
      8 N          32.2360   -4.2970   -9.3080 N.am      1 SUB1        0.000
      9 CA         33.5710   -4.3610   -8.6750 C.3       1 SUB1        0.000
     10 C          33.3970   -4.7760   -7.2060 C.2       1 SUB1        0.000
     11 O          33.7020   -3.9880   -6.3210 O.2       1 SUB1        0.000
     12 CB         34.2240   -2.9720   -8.7110 C.3       1 SUB1        0.000
     13 CG         34.0100   -2.2980  -10.0640 C.2       1 SUB1        0.000
     14 ND1        32.9450   -1.4820  -10.4290 N.pl3     1 SUB1        0.000
     15 CD2        34.8750   -2.3950  -11.1580 C.2       1 SUB1        0.000
     16 CE1        33.1420   -1.0770  -11.7500 C.2       1 SUB1        0.000
     17 NE2        34.3380   -1.6410  -12.2010 N.2       1 SUB1        0.000
     18 N          32.9160   -5.9870   -6.9810 N.am      1 SUB1        0.000
     19 CA         32.4940   -6.4320   -5.6710 C.3       1 SUB1        0.000
     20 C          33.6560   -6.5580   -4.6880 C.2       1 SUB1        0.000
     21 O          34.8250   -6.5470   -5.0360 O.2       1 SUB1        0.000
     22 CB         31.9240   -7.7960   -5.9970 C.3       1 SUB1        0.000
     23 CG         32.5500   -8.2490   -7.2920 C.3       1 SUB1        0.000
     24 CD         32.7690   -6.9650   -8.0660 C.3       1 SUB1        0.000
     25 N          33.2950   -6.6630   -3.4370 N.am      1 SUB1        0.000
     26 CA         34.2820   -6.7970   -2.3380 C.3       1 SUB1        0.000
     27 C          33.7670   -7.9640   -1.4570 C.2       1 SUB1        0.000
     28 O          32.5930   -8.0030   -1.2270 O.2       1 SUB1        0.000
     29 CB         34.1210   -5.5090   -1.4650 C.3       1 SUB1        0.000
     30 CG         34.8830   -4.3720   -2.1480 C.ar      1 SUB1        0.000
     31 CD1        34.2450   -3.5600   -3.0740 C.ar      1 SUB1        0.000
     32 CD2        36.2210   -4.1670   -1.8240 C.ar      1 SUB1        0.000
     33 CE1        34.9460   -2.5290   -3.6890 C.ar      1 SUB1        0.000
     34 CE2        36.9260   -3.1300   -2.4420 C.ar      1 SUB1        0.000
     35 CZ         36.2830   -2.3210   -3.3670 C.ar      1 SUB1        0.000
     36 N          34.6540   -8.8030   -1.0470 N.am      1 SUB1        0.000
     37 CA         34.4250   -9.8190    0.0040 C.3       1 SUB1        0.000
     38 C          35.5400   -9.7320    1.0430 C.2       1 SUB1        0.000
     39 O          36.6080  -10.2910    0.8830 O.2       1 SUB1        0.000
     40 CB         34.3650  -11.1730   -0.6570 C.3       1 SUB1        0.000
     41 CG         34.3570  -12.3510    0.2920 C.2       1 SUB1        0.000
     42 ND1        33.9000  -12.3850    1.5950 N.pl3     1 SUB1        0.000
     43 CD2        34.8320  -13.6320   -0.0450 C.2       1 SUB1        0.000
     44 CE1        34.0890  -13.6830    2.0850 C.2       1 SUB1        0.000
     45 NE2        34.6520  -14.4270    1.0780 N.2       1 SUB1        0.000
     46 N          35.2660   -9.0110    2.1230 N.am      1 SUB1        0.000
     47 CA         36.2400   -8.7630    3.1850 C.3       1 SUB1        0.000
     48 CB         36.7490   -7.3720    3.2110 C.3       1 SUB1        0.000
     49 CG         37.2040   -6.7510    1.9200 C.3       1 SUB1        0.000
     50 CD1        37.3720   -5.2440    2.0540 C.3       1 SUB1        0.000
     51 CD2        38.5740   -7.3000    1.4150 C.3       1 SUB1        0.000
     52 CH         35.6950   -9.2000    4.5530 C.3       1 SUB1        0.000
     53 OH         34.5450   -8.4800    4.9000 O.3       1 SUB1        0.000
     54 CM         35.3740  -10.7030    4.5640 C.3       1 SUB1        0.000
     55 C          36.6380  -11.5220    4.7400 C.2       1 SUB1        0.000
     56 O          37.4860  -11.5300    3.8500 O.2       1 SUB1        0.000
     57 N          36.7890  -12.2010    5.8630 N.am      1 SUB1        0.000
     58 CA         37.8180  -13.2800    5.9280 C.3       1 SUB1        0.000
     59 C          37.2760  -14.5430    5.2570 C.2       1 SUB1        0.000
     60 O          36.1000  -14.8770    5.4240 O.2       1 SUB1        0.000
     61 CB         38.1510  -13.5490    7.3840 C.3       1 SUB1        0.000
     62 CG         38.9300  -12.4170    8.0130 C.3       1 SUB1        0.000
     63 CD1        38.7780  -12.3690    9.5270 C.3       1 SUB1        0.000
     64 CD2        40.3760  -12.3210    7.6040 C.3       1 SUB1        0.000
     65 N          38.1100  -15.2360    4.5030 N.am      1 SUB1        0.000
     66 H          31.4644   -3.9414   -8.7806 H         1 SUB1        0.000
     67 HA         34.2037   -5.0890   -9.2038 H         1 SUB1        0.000
     68 HB2        35.3037   -3.0780   -8.5294 H         1 SUB1        0.000
     69 HB1        33.7795   -2.3457   -7.9235 H         1 SUB1        0.000
     70 HD1        32.1493   -1.2217   -9.8290 H         1 SUB1        0.000
     71 HD2        35.8052   -2.9603  -11.1901 H         1 SUB1        0.000
     72 HE1        32.4796   -0.4341  -12.3279 H         1 SUB1        0.000
     73 HA         31.7301   -5.7620   -5.2496 H         1 SUB1        0.000
     74 HB2        30.8319   -7.7297   -6.1104 H         1 SUB1        0.000
     75 HB1        32.1667   -8.5067   -5.1933 H         1 SUB1        0.000
     76 HG1        33.5059   -8.7604   -7.1056 H         1 SUB1        0.000
     77 HG2        31.8737   -8.9234   -7.8377 H         1 SUB1        0.000
     78 HD1        33.6776   -7.0188   -8.6836 H         1 SUB1        0.000
     79 HD2        31.9050   -6.7291   -8.7047 H         1 SUB1        0.000
     80 H          32.3205   -6.6527   -3.2128 H         1 SUB1        0.000
     81 HA         35.3104   -6.9486   -2.6977 H         1 SUB1        0.000
     82 HB2        34.5353   -5.6849   -0.4613 H         1 SUB1        0.000
     83 HB1        33.0561   -5.2463   -1.3812 H         1 SUB1        0.000
     84 HD1        33.2023   -3.7289   -3.3175 H         1 SUB1        0.000
     85 HD2        36.7121   -4.8058   -1.0989 H         1 SUB1        0.000
     86 HE1        34.4539   -1.8915   -4.4146 H         1 SUB1        0.000
     87 HE2        37.9687   -2.9593   -2.1998 H         1 SUB1        0.000
     88 HZ         36.8295   -1.5162   -3.8452 H         1 SUB1        0.000
     89 H          35.5602   -8.7651   -1.4681 H         1 SUB1        0.000
     90 HA         33.4639   -9.6223    0.5016 H         1 SUB1        0.000
     91 HB2        35.2419  -11.2707   -1.3138 H         1 SUB1        0.000
     92 HB1        33.4473  -11.2165   -1.2618 H         1 SUB1        0.000
     93 HD1        33.4921  -11.5948    2.1147 H         1 SUB1        0.000
     94 HD2        35.2572  -13.9390   -0.9994 H         1 SUB1        0.000
     95 HE1        33.8356  -14.0376    3.0830 H         1 SUB1        0.000
     96 H          36.2209  -11.9946    6.6597 H         1 SUB1        0.000
     97 HA         38.7269  -12.9535    5.4015 H         1 SUB1        0.000
     98 HB2        38.7515  -14.4685    7.4455 H         1 SUB1        0.000
     99 HB1        37.2130  -13.6858    7.9420 H         1 SUB1        0.000
    100 HG         38.4582  -11.4987    7.6334 H         1 SUB1        0.000
    101 HD13       37.7188  -12.2218    9.7846 H         1 SUB1        0.000
    102 HD12       39.3724  -11.5353    9.9290 H         1 SUB1        0.000
    103 HD11       39.1330  -13.3152    9.9614 H         1 SUB1        0.000
    104 HD23       40.9001  -13.2447    7.8904 H         1 SUB1        0.000
    105 HD22       40.8436  -11.4626    8.1085 H         1 SUB1        0.000
    106 HD21       40.4407  -12.1855    6.5143 H         1 SUB1        0.000
    107 H          39.0970  -15.1115    4.6045 H         1 SUB1        0.000
    108 ****       30.7118   -4.6139  -14.2420 H         1 SUB1        0.000
    109 ****       31.9411   -3.9853  -13.0930 H         1 SUB1        0.000
    110 ****       30.2780   -3.3066  -13.0890 H         1 SUB1        0.000
    111 ****       28.7590   -5.9666  -13.3783 H         1 SUB1        0.000
    112 ****       28.3655   -4.6433  -12.2292 H         1 SUB1        0.000
    113 ****       28.6230   -6.3138  -11.6212 H         1 SUB1        0.000
    114 ****       31.0621   -6.9479  -13.4212 H         1 SUB1        0.000
    115 ****       30.9109   -7.3239  -11.6712 H         1 SUB1        0.000
    116 ****       32.3121   -6.3710  -12.2674 H         1 SUB1        0.000
    117 ****       34.3506   -8.6190    2.2148 H         1 SUB1        0.000
    118 ****       37.1066   -9.4050    2.9687 H         1 SUB1        0.000
    119 ****       37.6058   -7.3525    3.9005 H         1 SUB1        0.000
    120 ****       35.9429   -6.7385    3.6097 H         1 SUB1        0.000
    121 ****       36.4377   -6.9617    1.1595 H         1 SUB1        0.000
    122 ****       37.7048   -4.8253    1.0928 H         1 SUB1        0.000
    123 ****       38.1223   -5.0261    2.8283 H         1 SUB1        0.000
    124 ****       36.4103   -4.7916    2.3377 H         1 SUB1        0.000
    125 ****       38.5111   -8.3921    1.2991 H         1 SUB1        0.000
    126 ****       39.3593   -7.0533    2.1447 H         1 SUB1        0.000
    127 ****       38.8176   -6.8418    0.4451 H         1 SUB1        0.000
    128 ****       36.4700   -9.0027    5.3082 H         1 SUB1        0.000
    129 ****       34.2326   -8.7720    5.7483 H         1 SUB1        0.000
    130 ****       34.8965  -10.9768    3.6116 H         1 SUB1        0.000
    131 ****       34.6859  -10.9188    5.3946 H         1 SUB1        0.000
    132 ****       37.7545  -15.8853    3.8306 H         1 SUB1        0.000
@<TRIPOS>BOND
     1    9    8 1  
     2    9   12 1  
     3    9   10 1  
     4   10   11 2  
     5   12   13 1  
     6   13   14 1  
     7   13   15 2  
     8   15   17 1  
     9   17   16 2  
    10   16   14 1  
    11   19   20 1  
    12   19   22 1  
    13   19   18 1  
    14   18   24 1  
    15   24   23 1  
    16   23   22 1  
    17   20   21 2  
    18   10   18 am 
    19   26   25 1  
    20   26   29 1  
    21   26   27 1  
    22   27   28 2  
    23   29   30 1  
    24   30   31 ar 
    25   30   32 ar 
    26   32   34 ar 
    27   34   35 ar 
    28   35   33 ar 
    29   33   31 ar 
    30   20   25 am 
    31   37   36 1  
    32   37   40 1  
    33   37   38 1  
    34   38   39 2  
    35   40   41 1  
    36   41   42 1  
    37   41   43 2  
    38   43   45 1  
    39   45   44 2  
    40   44   42 1  
    41   27   36 am 
    42   58   57 1  
    43   58   61 1  
    44   58   59 1  
    45   59   60 2  
    46   61   62 1  
    47   62   63 1  
    48   62   64 1  
    49   59   65 am 
    50    1    2 2  
    51    2    3 1  
    52    2    8 am 
    53    3    4 1  
    54    4    5 1  
    55    4    6 1  
    56    4    7 1  
    57   38   46 am 
    58   46   47 1  
    59   47   48 1  
    60   47   52 1  
    61   48   49 1  
    62   49   50 1  
    63   49   51 1  
    64   52   53 1  
    65   52   54 1  
    66   54   55 1  
    67   55   56 2  
    68   55   57 am 
    69    8   66 1  
    70    9   67 1  
    71   12   68 1  
    72   12   69 1  
    73   14   70 1  
    74   15   71 1  
    75   16   72 1  
    76   19   73 1  
    77   22   74 1  
    78   22   75 1  
    79   23   76 1  
    80   23   77 1  
    81   24   78 1  
    82   24   79 1  
    83   25   80 1  
    84   26   81 1  
    85   29   82 1  
    86   29   83 1  
    87   31   84 1  
    88   32   85 1  
    89   33   86 1  
    90   34   87 1  
    91   35   88 1  
    92   36   89 1  
    93   37   90 1  
    94   40   91 1  
    95   40   92 1  
    96   42   93 1  
    97   43   94 1  
    98   44   95 1  
    99   57   96 1  
   100   58   97 1  
   101   61   98 1  
   102   61   99 1  
   103   62  100 1  
   104   63  101 1  
   105   63  102 1  
   106   63  103 1  
   107   64  104 1  
   108   64  105 1  
   109   64  106 1  
   110   65  107 1  
   111    5  108 1  
   112    5  109 1  
   113    5  110 1  
   114    6  111 1  
   115    6  112 1  
   116    6  113 1  
   117    7  114 1  
   118    7  115 1  
   119    7  116 1  
   120   46  117 1  
   121   47  118 1  
   122   48  119 1  
   123   48  120 1  
   124   49  121 1  
   125   50  122 1  
   126   50  123 1  
   127   50  124 1  
   128   51  125 1  
   129   51  126 1  
   130   51  127 1  
   131   52  128 1  
   132   53  129 1  
   133   54  130 1  
   134   54  131 1  
   135   65  132 1  
@<TRIPOS>SUBSTRUCTURE
     1 SUB1        1 GROUP

