### Name: 2ldb_ligand
### Creating user name: arthur
### Creation time: Tue Nov 27 11:30:30 2001


@<TRIPOS>MOLECULE
2ldb_ligand
   71    75     1     0     0
SMALL
USER_CHARGES


@<TRIPOS>ATOM
      1 H1          5.0367   26.6620   10.4466 H         1 SUB1        0.000
      2 H2          3.7599   26.4547    9.2002 H         1 SUB1        0.000
      3 H3          2.5691   26.3978   10.9968 H         1 SUB1        0.000
      4 H4          2.3384   29.1863   10.1219 H         1 SUB1        0.000
      5 H5          0.1268   28.4998   10.4168 H         1 SUB1        0.000
      6 H6          2.6906   29.8746   12.3164 H         1 SUB1        0.000
      7 H7          0.8430   29.8414   13.6194 H         1 SUB1        0.000
      8 H8          1.8241   27.0121   13.2896 H         1 SUB1        0.000
      9 H9          4.5726   29.7664   13.6090 H         1 SUB1        0.000
     10 H10         4.0770   29.1037   19.7587 H         1 SUB1        0.000
     11 H11         4.7847   30.0444   18.4182 H         1 SUB1        0.000
     12 H12         1.1696   26.1611   17.7474 H         1 SUB1        0.000
     13 H13         7.5416   25.5941   10.0887 H         1 SUB1        0.000
     14 H14         8.2146   27.1375    9.4629 H         1 SUB1        0.000
     15 H15         9.7973   25.2709   10.7579 H         1 SUB1        0.000
     16 H16        10.3537   27.5280    9.0359 H         1 SUB1        0.000
     17 H17        12.4624   27.2915    9.9557 H         1 SUB1        0.000
     18 H18        10.7629   26.1720    7.1377 H         1 SUB1        0.000
     19 H19        12.9373   25.6707    6.8741 H         1 SUB1        0.000
     20 H20        11.7810   24.1763    9.2799 H         1 SUB1        0.000
     21 H21        13.0551   22.6574    8.6390 H         1 SUB1        0.000
     22 H22        15.3050   19.7618    8.2824 H         1 SUB1        0.000
     23 H23        14.1773   20.9191    8.9060 H         1 SUB1        0.000
     24 H24        12.1552   20.8165    5.2228 H         1 SUB1        0.000
     25 H25        13.4301   21.9471    4.6545 H         1 SUB1        0.000
     26 H26        11.2248   22.7839    4.1409 H         1 SUB1        0.000
     27 H27        10.4930   24.5124    5.7013 H         1 SUB1        0.000
     28 AP          5.0340   28.3140    7.7980 P.3       1 SUB1        0.000
     29 AO1         5.3590   29.7540    7.4250 O.co2     1 SUB1       -0.500
     30 AO2         3.9700   27.8160    6.8950 O.co2     1 SUB1       -0.500
     31 AO5'        4.5650   28.3780    9.3500 O.3       1 SUB1        0.000
     32 AC5'        4.1590   27.1270    9.9740 C.3       1 SUB1        0.000
     33 AC4'        3.1300   27.3440   10.9920 C.3       1 SUB1        0.000
     34 AO4'        3.7130   27.4970   12.3290 O.3       1 SUB1        0.000
     35 AC3'        2.0560   28.4260   10.8650 C.3       1 SUB1        0.000
     36 AO3'        0.7890   27.8230   10.4940 O.3       1 SUB1        0.000
     37 AC2'        1.9950   29.0240   12.2660 C.3       1 SUB1        0.000
     38 AO2'        0.7400   29.4970   12.7400 O.3       1 SUB1        0.000
     39 AC1'        2.5460   27.8270   13.1320 C.3       1 SUB1        0.000
     40 AN9         3.1380   28.3300   14.3730 N.pl3     1 SUB1        0.000
     41 AC8         4.0870   29.3020   14.4660 C.2       1 SUB1        0.000
     42 AN7         4.3500   29.6170   15.7420 N.2       1 SUB1        0.000
     43 AC5         3.5470   28.7890   16.4880 C.2       1 SUB1        0.000
     44 AC6         3.4670   28.5700   17.8750 C.2       1 SUB1        0.000
     45 AN6         4.1620   29.2940   18.7500 N.pl3     1 SUB1        0.000
     46 AN1         2.6240   27.5900   18.3000 N.2       1 SUB1        0.000
     47 AC2         1.8640   26.9020   17.3540 C.2       1 SUB1        0.000
     48 AN3         1.8820   27.0360   16.0580 N.2       1 SUB1        0.000
     49 AC4         2.7830   27.9770   15.6640 C.2       1 SUB1        0.000
     50 O3          6.3260   27.4170    7.8840 O.3       1 SUB1        0.000
     51 NP          6.8630   26.1920    7.0710 P.3       1 SUB1        0.000
     52 NO1         7.4490   26.5960    5.7350 O.co2     1 SUB1       -0.500
     53 NO2         5.7350   25.2480    6.8300 O.co2     1 SUB1       -0.500
     54 NO5'        8.0230   25.5940    8.0280 O.3       1 SUB1        0.000
     55 NC5'        8.2690   26.0410    9.3950 C.3       1 SUB1        0.000
     56 NC4'        9.6810   25.5490    9.7000 C.3       1 SUB1        0.000
     57 NO4'        9.8020   24.3710    8.7450 O.3       1 SUB1        0.000
     58 NC3'       10.7840   26.5410    9.2610 C.3       1 SUB1        0.000
     59 NO3'       11.8040   26.6770   10.2580 O.3       1 SUB1        0.000
     60 NC2'       11.3730   25.8980    8.0110 C.3       1 SUB1        0.000
     61 NO2'       12.7230   26.1380    7.6730 O.3       1 SUB1        0.000
     62 NC1'       11.1810   24.4170    8.3900 C.3       1 SUB1        0.000
     63 NN1        11.6310   23.5400    7.3280 N.pl3     1 SUB1        0.000
     64 NC2        12.6460   22.6810    7.6300 C.2       1 SUB1        0.000
     65 NC3        13.1470   21.8570    6.6790 C.2       1 SUB1        0.000
     66 NC7        14.2390   20.7710    6.8870 C.2       1 SUB1        0.000
     67 NO7        14.6470   20.1610    5.8790 O.2       1 SUB1        0.000
     68 NN7        14.6040   20.4580    8.1280 N.am      1 SUB1        0.000
     69 NC4        12.6110   21.8060    5.3750 C.3       1 SUB1        0.000
     70 NC5        11.6510   22.7720    5.1430 C.2       1 SUB1        0.000
     71 NC6        11.1670   23.7120    6.0030 C.2       1 SUB1        0.000
@<TRIPOS>BOND
     1   32    1 1  
     2   32    2 1  
     3   33    3 1  
     4   35    4 1  
     5   36    5 1  
     6   37    6 1  
     7   38    7 1  
     8   39    8 1  
     9   41    9 1  
    10   45   10 1  
    11   45   11 1  
    12   47   12 1  
    13   55   13 1  
    14   55   14 1  
    15   56   15 1  
    16   58   16 1  
    17   59   17 1  
    18   60   18 1  
    19   61   19 1  
    20   62   20 1  
    21   64   21 1  
    22   68   22 1  
    23   68   23 1  
    24   69   24 1  
    25   69   25 1  
    26   70   26 1  
    27   71   27 1  
    28   28   29 ar 
    29   28   30 ar 
    30   28   31 1  
    31   28   50 1  
    32   31   32 1  
    33   32   33 1  
    34   33   34 1  
    35   33   35 1  
    36   34   39 1  
    37   35   36 1  
    38   35   37 1  
    39   37   38 1  
    40   37   39 1  
    41   39   40 1  
    42   40   41 1  
    43   40   49 1  
    44   41   42 2  
    45   42   43 1  
    46   43   44 1  
    47   43   49 2  
    48   44   45 1  
    49   44   46 2  
    50   46   47 1  
    51   47   48 2  
    52   48   49 1  
    53   50   51 1  
    54   51   52 ar 
    55   51   53 ar 
    56   51   54 1  
    57   54   55 1  
    58   55   56 1  
    59   56   57 1  
    60   56   58 1  
    61   57   62 1  
    62   58   59 1  
    63   58   60 1  
    64   60   61 1  
    65   60   62 1  
    66   62   63 1  
    67   63   64 1  
    68   63   71 1  
    69   64   65 2  
    70   65   66 1  
    71   65   69 1  
    72   66   67 2  
    73   66   68 am 
    74   69   70 1  
    75   70   71 2  
@<TRIPOS>SUBSTRUCTURE
     1 SUB1        1 GROUP

