### Name: 2mcp_ligand
### Creating user name: arthur
### Creation time: Tue Nov 27 11:30:30 2001


@<TRIPOS>MOLECULE
2mcp_ligand
   24    23     1     0     0
SMALL
USER_CHARGES


@<TRIPOS>ATOM
      1 H1         48.8532   59.3092  -36.1248 H         1 SUB1        0.000
      2 H2         49.6959   60.5023  -37.1704 H         1 SUB1        0.000
      3 H3         51.8024   59.4216  -36.8976 H         1 SUB1        0.000
      4 H4         51.0467   57.9199  -36.2647 H         1 SUB1        0.000
      5 H5         50.1216   59.4616  -33.0114 H         1 SUB1        0.000
      6 H6         50.0328   57.9647  -34.0002 H         1 SUB1        0.000
      7 H7         49.0527   59.4001  -34.4536 H         1 SUB1        0.000
      8 H8         51.8512   61.4251  -35.6158 H         1 SUB1        0.000
      9 H9         51.0966   61.5127  -33.9881 H         1 SUB1        0.000
     10 H10        50.0649   61.3369  -35.4480 H         1 SUB1        0.000
     11 H11        52.5419   58.0821  -34.1897 H         1 SUB1        0.000
     12 H12        52.5812   59.6347  -33.2873 H         1 SUB1        0.000
     13 H13        53.2692   59.5411  -34.9440 H         1 SUB1        0.000
     14 O4         47.9990   56.5130  -37.7670 O.co2     1 SUB1       -0.500
     15 P1         49.3730   57.0640  -37.8060 P.3       1 SUB1        0.000
     16 O1         49.9370   57.0160  -36.4030 O.co2     1 SUB1       -0.500
     17 O3         50.3820   56.6260  -38.8160 O.co2     1 SUB1       -0.500
     18 O2         49.3050   58.6700  -38.0330 O.3       1 SUB1        0.000
     19 C1         49.6390   59.4420  -36.8830 C.3       1 SUB1        0.000
     20 C2         50.9850   59.0180  -36.2820 C.3       1 SUB1        0.000
     21 N1         51.1110   59.5510  -34.8670 N.4       1 SUB1        1.000
     22 C3         50.0110   59.0640  -34.0310 C.3       1 SUB1        0.000
     23 C5         51.0250   61.0600  -34.9880 C.3       1 SUB1        0.000
     24 C4         52.4710   59.1760  -34.2810 C.3       1 SUB1        0.000
@<TRIPOS>BOND
     1   19    1 1  
     2   19    2 1  
     3   20    3 1  
     4   20    4 1  
     5   22    5 1  
     6   22    6 1  
     7   22    7 1  
     8   23    8 1  
     9   23    9 1  
    10   23   10 1  
    11   24   11 1  
    12   24   12 1  
    13   24   13 1  
    14   14   15 ar 
    15   15   16 ar 
    16   15   17 ar 
    17   15   18 1  
    18   18   19 1  
    19   19   20 1  
    20   20   21 1  
    21   21   22 1  
    22   21   23 1  
    23   21   24 1  
@<TRIPOS>SUBSTRUCTURE
     1 SUB1        1 GROUP

