### Name: 2msb_ligand
### Creating user name: arthur
### Creation time: Tue Nov 27 11:30:23 2001


@<TRIPOS>MOLECULE
2msb_ligand
  114   118     1     0     0
SMALL
USER_CHARGES


@<TRIPOS>ATOM
      1 H1         -2.7206   19.3742   13.7631 H         1 SUB1        0.000
      2 H2         -1.6759   20.8173   13.5341 H         1 SUB1        0.000
      3 H3         -1.6008   19.4588   12.3612 H         1 SUB1        0.000
      4 H4         -1.7911   21.6095   11.2184 H         1 SUB1        0.000
      5 H5         -2.8763   20.1058    9.6433 H         1 SUB1        0.000
      6 H6         -2.0279   22.1073    8.5969 H         1 SUB1        0.000
      7 H7         -4.7133   23.3879    9.2744 H         1 SUB1        0.000
      8 H8         -1.9740   23.9143   10.5224 H         1 SUB1        0.000
      9 H9         -3.3303   25.9531   10.4046 H         1 SUB1        0.000
     10 H10        -3.3742   25.3251   12.0870 H         1 SUB1        0.000
     11 H11        -4.9745   20.1634   10.6339 H         1 SUB1        0.000
     12 H12        -3.6031   24.1376    7.3936 H         1 SUB1        0.000
     13 H13        -5.4760   26.3624   12.4413 H         1 SUB1        0.000
     14 H14        -7.4217   24.8354   12.0859 H         1 SUB1        0.000
     15 H15        -7.1904   24.6505    9.6196 H         1 SUB1        0.000
     16 H16        -8.1990   27.5370    9.6513 H         1 SUB1        0.000
     17 H17        -5.5223   26.4018    8.7097 H         1 SUB1        0.000
     18 H18        -6.0150   28.4215    7.4902 H         1 SUB1        0.000
     19 H19        -4.8674   28.8708    8.7970 H         1 SUB1        0.000
     20 H20        -7.7312   26.9663   12.9393 H         1 SUB1        0.000
     21 H21        -8.9218   26.2185    7.8919 H         1 SUB1        0.000
     22 H22        -2.3194   22.3102    6.4086 H         1 SUB1        0.000
     23 H23        -4.6002   22.5116    5.3636 H         1 SUB1        0.000
     24 H24        -5.5527   20.3547    6.0639 H         1 SUB1        0.000
     25 H25        -3.3973   19.2065    4.2213 H         1 SUB1        0.000
     26 H26        -3.8363   19.0265    7.2417 H         1 SUB1        0.000
     27 H27        -2.8723   16.9564    6.3216 H         1 SUB1        0.000
     28 H28        -1.6549   17.8714    7.2743 H         1 SUB1        0.000
     29 H29        -6.2515   21.2574    4.0475 H         1 SUB1        0.000
     30 H30        -5.4117   18.0759    4.2334 H         1 SUB1        0.000
     31 H31        -0.8268   17.1154    5.2486 H         1 SUB1        0.000
     32 H32        -7.9366   31.1379    8.5324 H         1 SUB1        0.000
     33 H33        -7.6803   29.9026    7.2538 H         1 SUB1        0.000
     34 H34        -6.3265   30.9723    7.7535 H         1 SUB1        0.000
     35 H35        -8.7570   23.2886    9.2259 H         1 SUB1        0.000
     36 H36       -11.0631   24.0537    8.6323 H         1 SUB1        0.000
     37 H37       -11.7877   24.9795   10.7842 H         1 SUB1        0.000
     38 H38       -11.6322   22.1119   11.8163 H         1 SUB1        0.000
     39 H39        -9.9185   24.5478   12.4722 H         1 SUB1        0.000
     40 H40        -9.9060   21.6534   13.4212 H         1 SUB1        0.000
     41 H41       -10.1423   23.1354   14.4084 H         1 SUB1        0.000
     42 H42       -10.4211   21.8269    8.5992 H         1 SUB1        0.000
     43 H43       -13.3828   23.9595    9.4497 H         1 SUB1        0.000
     44 H44       -13.2477   23.4929   12.7391 H         1 SUB1        0.000
     45 H45        -7.9948   22.3043   14.5359 H         1 SUB1        0.000
     46 H46        -3.7109   23.6562    4.0004 H         1 SUB1        0.000
     47 H47        -4.0181   22.5552    1.7871 H         1 SUB1        0.000
     48 H48        -2.1107   21.0325    1.8271 H         1 SUB1        0.000
     49 H49        -0.3327   23.5016    1.6005 H         1 SUB1        0.000
     50 H50        -0.6679   21.5827    3.9529 H         1 SUB1        0.000
     51 H51         0.7037   24.2947    3.7445 H         1 SUB1        0.000
     52 H52         1.5507   22.7143    3.6371 H         1 SUB1        0.000
     53 H53        -3.6211   24.8263    1.9703 H         1 SUB1        0.000
     54 H54        -2.7894   21.8661   -0.2236 H         1 SUB1        0.000
     55 H55         0.3973   21.5092    0.6617 H         1 SUB1        0.000
     56 H56         1.5268   23.5765    5.7821 H         1 SUB1        0.000
     57 C4         -2.2620   20.0420   13.0190 C.3       1 SUB1        0.000
     58 O4         -3.2970   20.6660   12.2300 O.3       1 SUB1        0.000
     59 C1         -2.8890   21.5450   11.2380 C.3       1 SUB1        0.000
     60 C2         -3.3940   21.0450    9.8880 C.3       1 SUB1        0.000
     61 C3         -3.1090   22.0620    8.7950 C.3       1 SUB1        0.000
     62 C4         -3.6160   23.4290    9.2100 C.3       1 SUB1        0.000
     63 C5         -3.0690   23.8250   10.5760 C.3       1 SUB1        0.000
     64 C6         -3.6740   25.1290   11.0470 C.3       1 SUB1        0.000
     65 O2         -4.7950   20.7990    9.9510 O.3       1 SUB1        0.000
     66 O3         -3.8150   21.6590    7.6140 O.3       1 SUB1        0.000
     67 O4         -3.2570   24.3950    8.2400 O.3       1 SUB1        0.000
     68 O5         -3.4450   22.8300   11.5400 O.3       1 SUB1        0.000
     69 O6         -5.1050   25.0120   10.9660 O.3       1 SUB1        0.000
     70 C1         -5.8200   26.1200   11.4250 C.3       1 SUB1        0.000
     71 C2         -7.2950   25.7420   11.4760 C.3       1 SUB1        0.000
     72 C3         -7.7810   25.4700   10.0550 C.3       1 SUB1        0.000
     73 C4         -7.5870   26.7290    9.2240 C.3       1 SUB1        0.000
     74 C5         -6.1120   27.1620    9.2430 C.3       1 SUB1        0.000
     75 C6         -5.8880   28.5240    8.5780 C.3       1 SUB1        0.000
     76 O2         -8.0420   26.8060   12.0560 O.3       1 SUB1        0.000
     77 O3         -9.1810   25.0920   10.0620 O.3       1 SUB1        0.000
     78 O4         -8.0100   26.4850    7.8910 O.3       1 SUB1        0.000
     79 O5         -5.6330   27.2750   10.6050 O.3       1 SUB1        0.000
     80 O6         -6.8390   29.4930    9.0800 O.3       1 SUB1        0.000
     81 C1         -3.0560   21.4950    6.4610 C.3       1 SUB1        0.000
     82 C2         -3.9890   21.6030    5.2590 C.3       1 SUB1        0.000
     83 C3         -4.9060   20.3950    5.1750 C.3       1 SUB1        0.000
     84 C4         -4.0450   19.1570    5.1090 C.3       1 SUB1        0.000
     85 C5         -3.1770   19.0820    6.3630 C.3       1 SUB1        0.000
     86 C6         -2.2590   17.8690    6.3550 C.3       1 SUB1        0.000
     87 O2         -3.2220   21.6860    4.0540 O.3       1 SUB1        0.000
     88 O3         -5.7100   20.4780    4.0050 O.3       1 SUB1        0.000
     89 O4         -4.8780   18.0160    5.0170 O.3       1 SUB1        0.000
     90 O5         -2.3430   20.2610    6.4600 O.3       1 SUB1        0.000
     91 O6         -1.3860   17.8830    5.2260 O.3       1 SUB1        0.000
     92 C1         -7.2160   30.4270    8.1020 C.3       1 SUB1        0.000
     93 C1         -9.4310   23.7140    9.9840 C.3       1 SUB1        0.000
     94 C2        -10.8590   23.4730    9.5440 C.3       1 SUB1        0.000
     95 C3        -11.8410   23.8900   10.6420 C.3       1 SUB1        0.000
     96 C4        -11.4900   23.1960   11.9370 C.3       1 SUB1        0.000
     97 C5        -10.0430   23.4690   12.2970 C.3       1 SUB1        0.000
     98 C6         -9.6230   22.7100   13.5370 C.3       1 SUB1        0.000
     99 O2        -11.0270   22.0950    9.2800 O.3       1 SUB1        0.000
    100 O3        -13.1560   23.5260   10.2640 O.3       1 SUB1        0.000
    101 O4        -12.3430   23.6670   12.9710 O.3       1 SUB1        0.000
    102 O5         -9.1800   23.0500   11.2160 O.3       1 SUB1        0.000
    103 O6         -8.2230   22.7900   13.7520 O.3       1 SUB1        0.000
    104 C1         -2.9530   22.9680    3.5980 C.3       1 SUB1        0.000
    105 C2         -3.0420   22.9620    2.0900 C.3       1 SUB1        0.000
    106 C3         -1.9320   22.0720    1.5150 C.3       1 SUB1        0.000
    107 C4         -0.5770   22.5150    2.0210 C.3       1 SUB1        0.000
    108 C5         -0.5790   22.6000    3.5440 C.3       1 SUB1        0.000
    109 C6          0.6800   23.2400    4.0560 C.3       1 SUB1        0.000
    110 O2         -2.9260   24.2930    1.6030 O.3       1 SUB1        0.000
    111 O3         -1.9410   22.1430    0.1020 O.3       1 SUB1        0.000
    112 O4          0.3920   21.5660    1.6100 O.3       1 SUB1        0.000
    113 O5         -1.6750   23.4110    4.0210 O.3       1 SUB1        0.000
    114 O6          0.7270   23.1690    5.4710 O.3       1 SUB1        0.000
@<TRIPOS>BOND
     1   57    1 1  
     2   57    2 1  
     3   57    3 1  
     4   59    4 1  
     5   60    5 1  
     6   61    6 1  
     7   62    7 1  
     8   63    8 1  
     9   64    9 1  
    10   64   10 1  
    11   65   11 1  
    12   67   12 1  
    13   70   13 1  
    14   71   14 1  
    15   72   15 1  
    16   73   16 1  
    17   74   17 1  
    18   75   18 1  
    19   75   19 1  
    20   76   20 1  
    21   78   21 1  
    22   81   22 1  
    23   82   23 1  
    24   83   24 1  
    25   84   25 1  
    26   85   26 1  
    27   86   27 1  
    28   86   28 1  
    29   88   29 1  
    30   89   30 1  
    31   91   31 1  
    32   92   32 1  
    33   92   33 1  
    34   92   34 1  
    35   93   35 1  
    36   94   36 1  
    37   95   37 1  
    38   96   38 1  
    39   97   39 1  
    40   98   40 1  
    41   98   41 1  
    42   99   42 1  
    43  100   43 1  
    44  101   44 1  
    45  103   45 1  
    46  104   46 1  
    47  105   47 1  
    48  106   48 1  
    49  107   49 1  
    50  108   50 1  
    51  109   51 1  
    52  109   52 1  
    53  110   53 1  
    54  111   54 1  
    55  112   55 1  
    56  114   56 1  
    57   57   58 1  
    58   58   59 1  
    59   59   60 1  
    60   59   68 1  
    61   60   61 1  
    62   60   65 1  
    63   61   62 1  
    64   61   66 1  
    65   62   63 1  
    66   62   67 1  
    67   63   64 1  
    68   63   68 1  
    69   64   69 1  
    70   66   81 1  
    71   69   70 1  
    72   70   71 1  
    73   70   79 1  
    74   71   72 1  
    75   71   76 1  
    76   72   73 1  
    77   72   77 1  
    78   73   74 1  
    79   73   78 1  
    80   74   75 1  
    81   74   79 1  
    82   75   80 1  
    83   77   93 1  
    84   80   92 1  
    85   81   82 1  
    86   81   90 1  
    87   82   83 1  
    88   82   87 1  
    89   83   84 1  
    90   83   88 1  
    91   84   85 1  
    92   84   89 1  
    93   85   86 1  
    94   85   90 1  
    95   86   91 1  
    96   87  104 1  
    97   93   94 1  
    98   93  102 1  
    99   94   95 1  
   100   94   99 1  
   101   95   96 1  
   102   95  100 1  
   103   96   97 1  
   104   96  101 1  
   105   97   98 1  
   106   97  102 1  
   107   98  103 1  
   108  104  105 1  
   109  104  113 1  
   110  105  106 1  
   111  105  110 1  
   112  106  107 1  
   113  106  111 1  
   114  107  108 1  
   115  107  112 1  
   116  108  109 1  
   117  108  113 1  
   118  109  114 1  
@<TRIPOS>SUBSTRUCTURE
     1 SUB1        1 GROUP

