### Name: 2pk4_ligand
### Creating user name: arthur
### Creation time: Tue Nov 27 11:30:23 2001


@<TRIPOS>MOLECULE
2pk4_ligand
   22    21     1     0     0
SMALL
USER_CHARGES


@<TRIPOS>ATOM
      1 H1          2.0669   -2.6067    1.9803 H         1 SUB1        0.000
      2 H2          0.8357   -1.3607    1.5824 H         1 SUB1        0.000
      3 H3          1.8385   -0.8561   -0.5096 H         1 SUB1        0.000
      4 H4          2.7181   -2.4210   -0.5738 H         1 SUB1        0.000
      5 H5          4.2309   -1.7224    1.2361 H         1 SUB1        0.000
      6 H6          3.2638   -0.2390    1.5376 H         1 SUB1        0.000
      7 H7          3.9921    0.7950   -0.3903 H         1 SUB1        0.000
      8 H8          4.4351   -0.7566   -1.1795 H         1 SUB1        0.000
      9 H9          5.9259    0.6247    1.0783 H         1 SUB1        0.000
     10 H10         6.4123    0.5482   -0.6492 H         1 SUB1        0.000
     11 H11         7.5479   -1.1023    0.6775 H         1 SUB1        0.000
     12 H12         6.5707   -1.8428   -0.4207 H         1 SUB1        0.000
     13 H13         6.1250   -1.7727    1.1624 H         1 SUB1        0.000
     14 C1          0.5600   -3.2550    0.5580 C.2       1 SUB1        0.000
     15 O          -0.5960   -2.8000    0.2490 O.co2     1 SUB1       -0.500
     16 OXT         0.7890   -4.4380    0.9010 O.co2     1 SUB1       -0.500
     17 C2          1.4600   -2.1690    1.1740 C.3       1 SUB1        0.000
     18 C3          2.3820   -1.6060    0.0840 C.3       1 SUB1        0.000
     19 C4          3.6150   -0.9410    0.7670 C.3       1 SUB1        0.000
     20 C5          4.4500   -0.1930   -0.2350 C.3       1 SUB1        0.000
     21 C6          5.8930    0.0170    0.1620 C.3       1 SUB1        0.000
     22 N6          6.5910   -1.2810    0.4160 N.4       1 SUB1        1.000
@<TRIPOS>BOND
     1   17    1 1  
     2   17    2 1  
     3   18    3 1  
     4   18    4 1  
     5   19    5 1  
     6   19    6 1  
     7   20    7 1  
     8   20    8 1  
     9   21    9 1  
    10   21   10 1  
    11   22   11 1  
    12   22   12 1  
    13   22   13 1  
    14   14   15 ar 
    15   14   16 ar 
    16   14   17 1  
    17   17   18 1  
    18   18   19 1  
    19   19   20 1  
    20   20   21 1  
    21   21   22 1  
@<TRIPOS>SUBSTRUCTURE
     1 SUB1        1 GROUP

