### Name: 2rnt_ligand
### Creating user name: arthur
### Creation time: Tue Nov 27 11:30:24 2001


@<TRIPOS>MOLECULE
2rnt_ligand
   68    73     1     0     0
SMALL
USER_CHARGES


@<TRIPOS>ATOM
      1 H1         18.0288   34.1115   25.4301 H         1 SUB1        0.000
      2 H2         20.2756   34.2746   24.8616 H         1 SUB1        0.000
      3 H3         19.4137   35.8463   24.7443 H         1 SUB1        0.000
      4 H4         20.8601   35.4110   22.8413 H         1 SUB1        0.000
      5 H5         17.7856   35.4251   22.1612 H         1 SUB1        0.000
      6 H6         18.3275   37.5893   21.7055 H         1 SUB1        0.000
      7 H7         18.7962   35.5070   19.8362 H         1 SUB1        0.000
      8 H8         19.9419   33.2538   20.1443 H         1 SUB1        0.000
      9 H9         18.1879   31.4366   19.6486 H         1 SUB1        0.000
     10 H10        13.3771   34.8766   22.3441 H         1 SUB1        0.000
     11 H11        16.1193   36.9687   23.2416 H         1 SUB1        0.000
     12 H12        14.8095   36.2979   23.9790 H         1 SUB1        0.000
     13 H13        14.6227   37.1434   22.5790 H         1 SUB1        0.000
     14 H14        22.6941   39.0577   20.9645 H         1 SUB1        0.000
     15 H15        21.4185   40.2382   21.4185 H         1 SUB1        0.000
     16 H16        22.7213   40.2871   18.7447 H         1 SUB1        0.000
     17 H17        24.1479   40.4476   21.1670 H         1 SUB1        0.000
     18 H18        25.7831   41.2054   19.7961 H         1 SUB1        0.000
     19 H19        23.5675   42.4286   22.0780 H         1 SUB1        0.000
     20 H20        24.5099   44.3198   21.1717 H         1 SUB1        0.000
     21 H21        22.9068   43.8550   19.5587 H         1 SUB1        0.000
     22 H22        20.9135   42.2955   22.6462 H         1 SUB1        0.000
     23 H23        19.8485   48.5208   20.8437 H         1 SUB1        0.000
     24 H24        22.2841   47.8649   18.2937 H         1 SUB1        0.000
     25 H25        21.1811   49.0634   19.0214 H         1 SUB1        0.000
     26 AO5'       18.2360   34.1560   24.5040 O.3       1 SUB1        0.000
     27 AC5'       19.4930   34.8320   24.3260 C.3       1 SUB1        0.000
     28 AC4'       19.8710   34.9320   22.8890 C.3       1 SUB1        0.000
     29 AO4'       19.8970   33.6570   22.1540 O.3       1 SUB1        0.000
     30 AC3'       18.8310   35.7400   22.0270 C.3       1 SUB1        0.000
     31 AO3'       18.9650   37.1260   22.2360 O.3       1 SUB1        0.000
     32 AC2'       19.4680   35.2870   20.6790 C.3       1 SUB1        0.000
     33 AO2'       20.5830   36.2000   20.4600 O.3       1 SUB1        0.000
     34 AC1'       19.3330   33.7900   20.8870 C.3       1 SUB1        0.000
     35 AN9        17.9340   33.2560   20.7850 N.pl3     1 SUB1        0.000
     36 AC8        17.4910   32.1080   20.1480 C.2       1 SUB1        0.000
     37 AN7        16.2060   31.8580   20.1670 N.2       1 SUB1        0.000
     38 AC5        15.7210   32.9060   20.8550 C.2       1 SUB1        0.000
     39 AC6        14.4410   33.3820   21.2990 C.2       1 SUB1        0.000
     40 AO6        13.4050   32.7490   21.0500 O.2       1 SUB1        0.000
     41 AN1        14.2920   34.5970   22.0530 N.am      1 SUB1        0.000
     42 AC2        15.4060   35.4160   22.3990 C.2       1 SUB1        0.000
     43 AN2        15.2290   36.5210   23.0900 N.4       1 SUB1        1.000
     44 AN3        16.6200   34.9760   21.9720 N.2       1 SUB1        0.000
     45 AC4        16.7560   33.7860   21.2490 C.2       1 SUB1        0.000
     46 P          20.9310   37.3850   19.4260 P.3       1 SUB1        0.000
     47 O1P        19.8170   37.1870   18.4180 O.co2     1 SUB1       -0.500
     48 O2P        22.3480   37.3890   18.9570 O.co2     1 SUB1       -0.500
     49 BO5'       20.8920   38.8500   19.9950 O.3       1 SUB1        0.000
     50 BC5'       21.8970   39.7110   20.5800 C.3       1 SUB1        0.000
     51 BC4'       22.5620   40.7580   19.7260 C.3       1 SUB1        0.000
     52 BO4'       21.9590   42.0370   19.4880 O.3       1 SUB1        0.000
     53 BC3'       23.9280   41.1470   20.3470 C.3       1 SUB1        0.000
     54 BO3'       24.9500   40.9650   19.4080 O.3       1 SUB1        0.000
     55 BC2'       23.7310   42.5300   20.9950 C.3       1 SUB1        0.000
     56 BO2'       24.7310   43.5110   20.7250 O.3       1 SUB1        0.000
     57 BC1'       22.5430   43.0850   20.2550 C.3       1 SUB1        0.000
     58 BN9        21.5560   43.7390   21.1590 N.pl3     1 SUB1        0.000
     59 BC8        20.8240   43.3040   22.2450 C.2       1 SUB1        0.000
     60 BN7        20.0140   44.1960   22.7560 N.2       1 SUB1        0.000
     61 BC5        20.2190   45.3120   21.9710 C.2       1 SUB1        0.000
     62 BC6        19.7230   46.6790   21.8680 C.2       1 SUB1        0.000
     63 BO6        18.8720   47.1740   22.6090 O.2       1 SUB1        0.000
     64 BN1        20.2110   47.5890   20.8610 N.am      1 SUB1        0.000
     65 BC2        21.1900   47.2190   19.8860 C.2       1 SUB1        0.000
     66 BN2        21.5800   48.1140   19.0030 N.pl3     1 SUB1        0.000
     67 BN3        21.6410   45.9330   19.9840 N.2       1 SUB1        0.000
     68 BC4        21.1830   45.0420   20.9540 C.2       1 SUB1        0.000
@<TRIPOS>BOND
     1   26    1 1  
     2   27    2 1  
     3   27    3 1  
     4   28    4 1  
     5   30    5 1  
     6   31    6 1  
     7   32    7 1  
     8   34    8 1  
     9   36    9 1  
    10   41   10 1  
    11   43   11 1  
    12   43   12 1  
    13   43   13 1  
    14   50   14 1  
    15   50   15 1  
    16   51   16 1  
    17   53   17 1  
    18   54   18 1  
    19   55   19 1  
    20   56   20 1  
    21   57   21 1  
    22   59   22 1  
    23   64   23 1  
    24   66   24 1  
    25   66   25 1  
    26   26   27 1  
    27   27   28 1  
    28   28   29 1  
    29   28   30 1  
    30   29   34 1  
    31   30   31 1  
    32   30   32 1  
    33   32   33 1  
    34   32   34 1  
    35   33   46 1  
    36   34   35 1  
    37   35   36 1  
    38   35   45 1  
    39   36   37 2  
    40   37   38 1  
    41   38   39 1  
    42   38   45 2  
    43   39   40 2  
    44   39   41 am 
    45   41   42 am 
    46   42   43 1  
    47   42   44 2  
    48   44   45 1  
    49   46   47 ar 
    50   46   48 ar 
    51   46   49 1  
    52   49   50 1  
    53   50   51 1  
    54   51   52 1  
    55   51   53 1  
    56   52   57 1  
    57   53   54 1  
    58   53   55 1  
    59   55   56 1  
    60   55   57 1  
    61   57   58 1  
    62   58   59 1  
    63   58   68 1  
    64   59   60 2  
    65   60   61 1  
    66   61   62 1  
    67   61   68 2  
    68   62   63 2  
    69   62   64 am 
    70   64   65 am 
    71   65   66 1  
    72   65   67 2  
    73   67   68 1  
@<TRIPOS>SUBSTRUCTURE
     1 SUB1        1 GROUP

