### Name: 3csc_ligand
### Creating user name: arthur
### Creation time: Tue Nov 27 11:30:24 2001


@<TRIPOS>MOLECULE
3csc_ligand
   85    87     1     0     0
SMALL
USER_CHARGES


@<TRIPOS>ATOM
      1 H1         15.5322  -15.4019   12.2187 H         1 SUB1        0.000
      2 H2         13.8102  -15.4920   12.7219 H         1 SUB1        0.000
      3 H3         15.0248  -14.6590   14.5949 H         1 SUB1        0.000
      4 H4         12.9689  -13.0699   13.6929 H         1 SUB1        0.000
      5 H5         14.4941  -11.8460   12.1459 H         1 SUB1        0.000
      6 H6         14.6162   -9.7785   13.1473 H         1 SUB1        0.000
      7 H7         16.2134  -11.5606   14.7140 H         1 SUB1        0.000
      8 H8         16.7010  -12.0447   10.8162 H         1 SUB1        0.000
      9 H9         20.2067   -6.8531   11.1057 H         1 SUB1        0.000
     10 H10        19.2753   -7.9412   10.0421 H         1 SUB1        0.000
     11 H11        19.1699   -8.1580   15.3587 H         1 SUB1        0.000
     12 H12        17.5269   -6.3474    3.8807 H         1 SUB1        0.000
     13 H13        16.2785   -6.8157    5.0844 H         1 SUB1        0.000
     14 H14        15.6629   -4.1405    4.3285 H         1 SUB1        0.000
     15 H15        17.4423   -4.1981    4.5678 H         1 SUB1        0.000
     16 H16        15.3422   -4.8615    6.6221 H         1 SUB1        0.000
     17 H17        15.6560   -5.1196    8.5865 H         1 SUB1        0.000
     18 H18        16.9203   -3.9375    9.0668 H         1 SUB1        0.000
     19 H19        17.2416   -5.8999   10.4322 H         1 SUB1        0.000
     20 H20        18.5399   -5.9184    9.1908 H         1 SUB1        0.000
     21 H21        17.4203   -7.6659    8.0727 H         1 SUB1        0.000
     22 H22        15.1984   -9.8747    9.5635 H         1 SUB1        0.000
     23 H23        17.5394   -9.8343    9.3614 H         1 SUB1        0.000
     24 H24        14.0608  -10.7604    6.1428 H         1 SUB1        0.000
     25 H25        15.2136  -11.3858    7.3703 H         1 SUB1        0.000
     26 H26        15.9515   -7.5528    6.6588 H         1 SUB1        0.000
     27 H27        15.0633   -8.5319    5.4427 H         1 SUB1        0.000
     28 H28        16.5771   -9.1651    6.1735 H         1 SUB1        0.000
     29 H29        12.9259   -9.0135    8.4876 H         1 SUB1        0.000
     30 H30        12.9188   -8.5892    6.7422 H         1 SUB1        0.000
     31 H31        13.6646   -7.4722    7.9350 H         1 SUB1        0.000
     32 H32        15.8238   -3.4635    0.8701 H         1 SUB1        0.000
     33 H33        16.3525   -5.1463    0.5309 H         1 SUB1        0.000
     34 H34        16.9877   -4.2780    1.9694 H         1 SUB1        0.000
     35 AO6        13.2960  -11.0010    8.0530 O.3       1 SUB1        0.000
     36 AP2        12.9290  -12.5570    8.4360 P.3       1 SUB1        0.000
     37 AO4        12.6500  -13.4100    7.2210 O.co2     1 SUB1       -0.500
     38 AO5        11.7140  -12.5810    9.3390 O.co2     1 SUB1       -0.500
     39 AO3        14.3450  -12.9570    9.1640 O.3       1 SUB1        0.000
     40 AP1        14.8050  -14.1790    9.9590 P.3       1 SUB1        0.000
     41 AO1        13.9900  -15.3390    9.4570 O.co2     1 SUB1       -0.500
     42 AO2        16.3050  -14.3160    9.9210 O.co2     1 SUB1       -0.500
     43 AO5'       14.2950  -13.8550   11.4680 O.3       1 SUB1        0.000
     44 AC5'       14.6520  -14.8140   12.5180 C.3       1 SUB1        0.000
     45 AC4'       14.9620  -13.9860   13.7270 C.3       1 SUB1        0.000
     46 AO4'       16.2730  -13.3040   13.4950 O.3       1 SUB1        0.000
     47 AC3'       13.9810  -12.8410   14.0580 C.3       1 SUB1        0.000
     48 AO3'       13.9000  -12.5290   15.3930 O.3       1 SUB1        0.000
     49 AP3'       12.4190  -12.9870   16.0220 P.3       1 SUB1        0.000
     50 AO7        11.3330  -12.1200   15.2440 O.co2     1 SUB1       -0.500
     51 AO8        12.2950  -12.5750   17.5630 O.co2     1 SUB1       -0.500
     52 AO9        12.2330  -14.5370   15.7360 O.co2     1 SUB1       -0.500
     53 AC2'       14.6400  -11.7210   13.2290 C.3       1 SUB1        0.000
     54 AO2'       14.2010  -10.4560   13.6680 O.3       1 SUB1        0.000
     55 AC1'       16.0750  -11.8750   13.6690 C.3       1 SUB1        0.000
     56 AN9        17.0240  -11.1310   12.7810 N.pl3     1 SUB1        0.000
     57 AC8        17.1220  -11.2260   11.3980 C.2       1 SUB1        0.000
     58 AN7        17.8000  -10.1860   10.8540 N.2       1 SUB1        0.000
     59 AC5        18.2460   -9.4720   11.9230 C.2       1 SUB1        0.000
     60 AC6        19.1550   -8.3090   12.0200 C.2       1 SUB1        0.000
     61 AN6        19.5740   -7.6570   10.9860 N.pl3     1 SUB1        0.000
     62 AN1        19.3910   -7.8690   13.2880 N.2       1 SUB1        0.000
     63 AC2        18.8950   -8.5510   14.3810 C.2       1 SUB1        0.000
     64 AN3        18.1170   -9.6370   14.3790 N.2       1 SUB1        0.000
     65 AC4        17.8120  -10.0320   13.1520 C.2       1 SUB1        0.000
     66 PS1        15.3120   -6.4350    2.8900 S.3       1 SUB1        0.000
     67 PC2        16.5150   -6.1330    4.2550 C.3       1 SUB1        0.000
     68 PC3        16.4900   -4.7040    4.7850 C.3       1 SUB1        0.000
     69 PN4        16.2840   -4.8230    6.2880 N.am      1 SUB1        0.000
     70 PC5        17.2420   -4.8790    7.1780 C.2       1 SUB1        0.000
     71 PO5        18.4930   -4.7760    6.8910 O.2       1 SUB1        0.000
     72 PC6        16.7360   -4.9110    8.5890 C.3       1 SUB1        0.000
     73 PC7        17.4550   -5.9920    9.3570 C.3       1 SUB1        0.000
     74 PN8        16.9590   -7.2510    8.8570 N.am      1 SUB1        0.000
     75 PC9        15.9450   -7.8710    9.3740 C.2       1 SUB1        0.000
     76 PO9        15.0660   -7.2990   10.2390 O.2       1 SUB1        0.000
     77 PC10       15.7190   -9.2630    8.8120 C.3       1 SUB1        0.000
     78 PO10       17.0340   -9.8320    8.5570 O.3       1 SUB1        0.000
     79 PC11       14.8400   -9.2380    7.5010 C.3       1 SUB1        0.000
     80 PC12       14.3830  -10.6870    7.1920 C.3       1 SUB1        0.000
     81 PC13       15.6690   -8.5730    6.3600 C.3       1 SUB1        0.000
     82 PC14       13.4920   -8.5280    7.6790 C.3       1 SUB1        0.000
     83 C          15.1350   -4.8710    2.0240 C.2       1 SUB1        0.000
     84 O          14.3740   -4.1540    2.6080 O.2       1 SUB1        0.000
     85 CH3        16.1090   -4.4240    1.3240 C.3       1 SUB1        0.000
@<TRIPOS>BOND
     1   44    1 1  
     2   44    2 1  
     3   45    3 1  
     4   47    4 1  
     5   53    5 1  
     6   54    6 1  
     7   55    7 1  
     8   57    8 1  
     9   61    9 1  
    10   61   10 1  
    11   63   11 1  
    12   67   12 1  
    13   67   13 1  
    14   68   14 1  
    15   68   15 1  
    16   69   16 1  
    17   72   17 1  
    18   72   18 1  
    19   73   19 1  
    20   73   20 1  
    21   74   21 1  
    22   77   22 1  
    23   78   23 1  
    24   80   24 1  
    25   80   25 1  
    26   81   26 1  
    27   81   27 1  
    28   81   28 1  
    29   82   29 1  
    30   82   30 1  
    31   82   31 1  
    32   85   32 1  
    33   85   33 1  
    34   85   34 1  
    35   35   36 1  
    36   35   80 1  
    37   36   37 ar 
    38   36   38 ar 
    39   36   39 1  
    40   39   40 1  
    41   40   41 ar 
    42   40   42 ar 
    43   40   43 1  
    44   43   44 1  
    45   44   45 1  
    46   45   46 1  
    47   45   47 1  
    48   46   55 1  
    49   47   48 1  
    50   47   53 1  
    51   48   49 1  
    52   49   50 ar 
    53   49   51 ar 
    54   49   52 ar 
    55   53   54 1  
    56   53   55 1  
    57   55   56 1  
    58   56   57 1  
    59   56   65 1  
    60   57   58 2  
    61   58   59 1  
    62   59   60 1  
    63   59   65 2  
    64   60   61 1  
    65   60   62 2  
    66   62   63 1  
    67   63   64 2  
    68   64   65 1  
    69   67   66 1  
    70   68   67 1  
    71   69   68 1  
    72   70   69 am 
    73   70   71 2  
    74   72   70 1  
    75   73   72 1  
    76   74   73 1  
    77   75   74 am 
    78   75   76 2  
    79   77   75 1  
    80   77   78 1  
    81   79   77 1  
    82   80   79 1  
    83   79   81 1  
    84   79   82 1  
    85   66   83 1  
    86   83   84 2  
    87   83   85 1  
@<TRIPOS>SUBSTRUCTURE
     1 SUB1        1 GROUP

