### Name: 3fx2_ligand
### Creating user name: arthur
### Creation time: Tue Nov 27 11:30:25 2001


@<TRIPOS>MOLECULE
3fx2_ligand
   50    52     1     0     0
SMALL
USER_CHARGES


@<TRIPOS>ATOM
      1 H1         22.2703   14.6502   83.0300 H         1 SUB1        0.000
      2 H2         24.3560   11.4363   77.2923 H         1 SUB1        0.000
      3 H3         25.5481   10.3947   75.4186 H         1 SUB1        0.000
      4 H4         26.8069    9.1884   75.8511 H         1 SUB1        0.000
      5 H5         27.2782   10.8764   75.4570 H         1 SUB1        0.000
      6 H6         29.5863    9.8008   78.3378 H         1 SUB1        0.000
      7 H7         29.1083   10.4033   76.7145 H         1 SUB1        0.000
      8 H8         28.5328    8.7993   77.2825 H         1 SUB1        0.000
      9 H9         28.4859   10.7359   80.1868 H         1 SUB1        0.000
     10 H10        28.0037   12.8667   82.4689 H         1 SUB1        0.000
     11 H11        28.3055   11.6135   81.2179 H         1 SUB1        0.000
     12 H12        27.6520   10.0732   82.3520 H         1 SUB1        0.000
     13 H13        26.9488    9.7346   84.4102 H         1 SUB1        0.000
     14 H14        29.6321   11.4358   83.8150 H         1 SUB1        0.000
     15 H15        30.6313    9.5563   82.8086 H         1 SUB1        0.000
     16 H16        28.1611    9.8077   85.5300 H         1 SUB1        0.000
     17 H17        30.4983    9.1867   86.0780 H         1 SUB1        0.000
     18 H18        29.8295    7.7913   84.0038 H         1 SUB1        0.000
     19 H19        28.0586    7.9463   83.7463 H         1 SUB1        0.000
     20 N1         25.2820   13.4550   83.0250 N.2       1 SUB1        0.000
     21 C2         24.1940   14.0990   83.4240 C.2       1 SUB1        0.000
     22 O2         24.2800   14.5000   84.6570 O.2       1 SUB1        0.000
     23 N3         23.0730   14.1840   82.6580 N.am      1 SUB1        0.000
     24 C4         22.9990   13.6320   81.3410 C.2       1 SUB1        0.000
     25 O4         21.9650   13.7290   80.6260 O.2       1 SUB1        0.000
     26 C4A        24.0520   12.9680   80.8100 C.2       1 SUB1        0.000
     27 N5         24.1880   12.3960   79.6670 N.2       1 SUB1        0.000
     28 C5A        25.2930   11.7730   79.2690 C.ar      1 SUB1        0.000
     29 C6         25.2340   11.2940   77.9120 C.ar      1 SUB1        0.000
     30 C7         26.3680   10.6380   77.4410 C.ar      1 SUB1        0.000
     31 C7M        26.5110   10.2450   75.9290 C.3       1 SUB1        0.000
     32 C8         27.5280   10.4930   78.2070 C.ar      1 SUB1        0.000
     33 C8M        28.7790    9.8260   77.5910 C.3       1 SUB1        0.000
     34 C9         27.6110   10.9140   79.5720 C.ar      1 SUB1        0.000
     35 C9A        26.4560   11.5840   80.0580 C.ar      1 SUB1        0.000
     36 N10        26.3290   12.2610   81.3820 N.pl3     1 SUB1        0.000
     37 C10        25.2310   12.8830   81.8260 C.2       1 SUB1        0.000
     38 C1'        27.6280   11.9340   82.0230 C.3       1 SUB1        0.000
     39 C2'        27.7030   10.8900   83.0870 C.3       1 SUB1        0.000
     40 O2'        26.6390   10.3860   83.7920 O.3       1 SUB1        0.000
     41 C3'        29.0700   10.5290   83.5470 C.3       1 SUB1        0.000
     42 O3'        29.7590    9.7840   82.5090 O.3       1 SUB1        0.000
     43 C4'        28.9510    9.5190   84.8210 C.3       1 SUB1        0.000
     44 O4'        30.3530    9.7150   85.3020 O.3       1 SUB1        0.000
     45 C5'        28.8740    8.0650   84.4750 C.3       1 SUB1        0.000
     46 O5'        28.6480    7.1660   85.4880 O.3       1 SUB1        0.000
     47 P          28.7580    5.6680   85.6090 P.3       1 SUB1        0.000
     48 OP1        28.4250    5.0860   87.0660 O.co2     1 SUB1       -0.500
     49 OP2        29.9910    5.0220   85.2880 O.co2     1 SUB1       -0.500
     50 OP3        27.5290    4.9020   84.7860 O.co2     1 SUB1       -0.500
@<TRIPOS>BOND
     1   23    1 1  
     2   29    2 1  
     3   31    3 1  
     4   31    4 1  
     5   31    5 1  
     6   33    6 1  
     7   33    7 1  
     8   33    8 1  
     9   34    9 1  
    10   38   10 1  
    11   38   11 1  
    12   39   12 1  
    13   40   13 1  
    14   41   14 1  
    15   42   15 1  
    16   43   16 1  
    17   44   17 1  
    18   45   18 1  
    19   45   19 1  
    20   20   21 1  
    21   20   37 2  
    22   21   22 2  
    23   21   23 am 
    24   23   24 am 
    25   24   25 2  
    26   24   26 1  
    27   26   27 2  
    28   26   37 1  
    29   27   28 1  
    30   28   29 ar 
    31   28   35 ar 
    32   29   30 ar 
    33   30   31 1  
    34   30   32 ar 
    35   32   33 1  
    36   32   34 ar 
    37   34   35 ar 
    38   35   36 1  
    39   36   37 1  
    40   36   38 1  
    41   38   39 1  
    42   39   40 1  
    43   39   41 1  
    44   41   42 1  
    45   41   43 1  
    46   43   44 1  
    47   43   45 1  
    48   45   46 1  
    49   46   47 1  
    50   47   48 ar 
    51   47   49 ar 
    52   47   50 ar 
@<TRIPOS>SUBSTRUCTURE
     1 SUB1        1 GROUP

