### Name: 3ptb_ligand
### Creating user name: arthur
### Creation time: Tue Nov 27 11:30:25 2001


@<TRIPOS>MOLECULE
3ptb_ligand
   18    18     1     0     0
SMALL
USER_CHARGES


@<TRIPOS>ATOM
      1 C1         -1.8530   14.3110   16.6580 C.ar      1 SUB1        0.000
      2 C2         -2.1070   15.6530   16.7580 C.ar      1 SUB1        0.000
      3 C3         -1.7740   16.3410   17.9320 C.ar      1 SUB1        0.000
      4 C4         -1.1750   15.6620   19.0050 C.ar      1 SUB1        0.000
      5 C5         -0.9140   14.2950   18.8850 C.ar      1 SUB1        0.000
      6 C6         -1.2570   13.6340   17.7080 C.ar      1 SUB1        0.000
      7 C7         -2.1930   13.6270   15.4960 C.cat     1 SUB1        0.000
      8 N1         -2.7970   14.2350   14.4910 N.pl3     1 SUB1        0.500
      9 N2         -1.7620   12.3910   15.3090 N.pl3     1 SUB1        0.500
     10 ****       -2.5650   16.1820   15.9301 H         1 SUB1        0.000
     11 ****       -1.9797   17.4023   18.0123 H         1 SUB1        0.000
     12 ****       -0.9183   16.1919   19.9151 H         1 SUB1        0.000
     13 ****       -0.4487   13.7535   19.7006 H         1 SUB1        0.000
     14 ****       -1.0542   12.5734   17.6128 H         1 SUB1        0.000
     15 ****       -3.0389   13.7072   13.6403 H         1 SUB1        0.000
     16 ****       -3.0261   15.2370   14.5580 H         1 SUB1        0.000
     17 ****       -1.2871   11.8900   16.0734 H         1 SUB1        0.000
     18 ****       -1.9012   11.9292   14.3989 H         1 SUB1        0.000
@<TRIPOS>BOND
     1    1    2 ar 
     2    1    6 ar 
     3    1    7 1  
     4    2    3 ar 
     5    3    4 ar 
     6    4    5 ar 
     7    5    6 ar 
     8    7    8 ar 
     9    7    9 ar 
    10    2   10 1  
    11    3   11 1  
    12    4   12 1  
    13    5   13 1  
    14    6   14 1  
    15    8   15 1  
    16    8   16 1  
    17    9   17 1  
    18    9   18 1  
@<TRIPOS>SUBSTRUCTURE
     1 SUB1        1 GROUP

