### Name: 4cla_ligand
### Creating user name: arthur
### Creation time: Tue Nov 27 11:30:25 2001


@<TRIPOS>MOLECULE
4cla_ligand
   32    32     1     0     0
SMALL
USER_CHARGES


@<TRIPOS>ATOM
      1 H1          1.3751   16.3457   15.8213 H         1 SUB1        0.000
      2 H2          1.9867   17.7648   14.2060 H         1 SUB1        0.000
      3 H3         -0.5443   14.0719   15.7896 H         1 SUB1        0.000
      4 H4          1.0619   12.9046   17.1832 H         1 SUB1        0.000
      5 H5          3.0765   13.9742   17.6412 H         1 SUB1        0.000
      6 H6         -1.0643   16.0987   17.1616 H         1 SUB1        0.000
      7 H7          0.4878   15.8521   18.0315 H         1 SUB1        0.000
      8 H8         -1.3197   14.8623   19.1213 H         1 SUB1        0.000
      9 H9          0.4138   11.6654   15.3714 H         1 SUB1        0.000
     10 H10         1.0227   10.5272   13.2545 H         1 SUB1        0.000
     11 H11         4.1416   13.4709   12.6477 H         1 SUB1        0.000
     12 H12         3.5206   14.5887   14.8785 H         1 SUB1        0.000
     13 NA          0.6840   15.7500   15.4120 N.am      1 SUB1        0.000
     14 CA1         0.3500   16.0770   14.2250 C.2       1 SUB1        0.000
     15 CA2         1.1300   17.3990   13.6210 C.3       1 SUB1        0.000
     16 CL1         1.4820   16.9710   12.0240 Cl        1 SUB1        0.000
     17 CL2        -0.2820   18.5360   13.4750 Cl        1 SUB1        0.000
     18 OA1        -0.5370   15.4850   13.6510 O.2       1 SUB1        0.000
     19 CE1         0.2410   14.6650   16.2810 C.3       1 SUB1        0.000
     20 CE2         1.4140   13.7600   16.5880 C.3       1 SUB1        0.000
     21 OE2         2.3240   14.5130   17.4270 O.3       1 SUB1        0.000
     22 CM1        -0.3260   15.3510   17.4870 C.3       1 SUB1        0.000
     23 OM1        -0.9690   14.4050   18.3660 O.3       1 SUB1        0.000
     24 CP1         1.9410   13.1890   15.2590 C.ar      1 SUB1        0.000
     25 CP2         1.2470   12.0370   14.7860 C.ar      1 SUB1        0.000
     26 CP3         1.5720   11.3780   13.6410 C.ar      1 SUB1        0.000
     27 CP4         2.6510   11.9050   13.0480 C.ar      1 SUB1        0.000
     28 CP5         3.3740   13.0820   13.3070 C.ar      1 SUB1        0.000
     29 CP6         2.9920   13.7100   14.5270 C.ar      1 SUB1        0.000
     30 NP4         3.2110   11.2580   11.8760 N.2       1 SUB1        0.000
     31 ON1         3.9990   11.8530   11.2700 O.2       1 SUB1        0.000
     32 ON2         2.7400   10.1710   11.5860 O.2       1 SUB1        0.000
@<TRIPOS>BOND
     1   13    1 1  
     2   15    2 1  
     3   19    3 1  
     4   20    4 1  
     5   21    5 1  
     6   22    6 1  
     7   22    7 1  
     8   23    8 1  
     9   25    9 1  
    10   26   10 1  
    11   28   11 1  
    12   29   12 1  
    13   13   14 am 
    14   13   19 1  
    15   14   15 1  
    16   14   18 2  
    17   15   16 1  
    18   15   17 1  
    19   19   20 1  
    20   19   22 1  
    21   20   21 1  
    22   20   24 1  
    23   22   23 1  
    24   24   25 ar 
    25   24   29 ar 
    26   25   26 ar 
    27   26   27 ar 
    28   27   28 ar 
    29   27   30 1  
    30   28   29 ar 
    31   30   31 2  
    32   30   32 2  
@<TRIPOS>SUBSTRUCTURE
     1 SUB1        1 GROUP

