### Name: 4est_ligand
### Creating user name: arthur
### Creation time: Tue Nov 27 11:30:25 2001


@<TRIPOS>MOLECULE
4est_ligand
   70    71     1     0     0
SMALL
USER_CHARGES


@<TRIPOS>ATOM
      1 H         -16.1420   20.5143   39.2338 H         1 SUB1        0.000
      2 HA        -14.5494   18.8517   37.3187 H         1 SUB1        0.000
      3 HB3       -15.9164   21.5818   37.0986 H         1 SUB1        0.000
      4 HB2       -16.5766   20.0256   36.4911 H         1 SUB1        0.000
      5 HB1       -15.0824   20.7110   35.7671 H         1 SUB1        0.000
      6 HA        -11.3639   21.1701   39.8540 H         1 SUB1        0.000
      7 HB2        -9.9393   19.4311   40.1927 H         1 SUB1        0.000
      8 HB1        -9.4013   19.6232   38.4898 H         1 SUB1        0.000
      9 HG1       -10.4617   17.6712   37.9135 H         1 SUB1        0.000
     10 HG2       -10.9371   17.4425   39.6305 H         1 SUB1        0.000
     11 HD1       -12.6213   18.2144   37.3864 H         1 SUB1        0.000
     12 HD2       -13.0977   17.9807   39.1025 H         1 SUB1        0.000
     13 H         -10.7539   22.9346   38.9380 H         1 SUB1        0.000
     14 HA        -10.4215   23.4271   36.0614 H         1 SUB1        0.000
     15 HB        -10.3275   25.8171   37.0283 H         1 SUB1        0.000
     16 HG13      -12.2481   24.6477   36.0396 H         1 SUB1        0.000
     17 HG12      -12.7783   25.6608   37.4249 H         1 SUB1        0.000
     18 HG11      -12.6105   23.8835   37.6244 H         1 SUB1        0.000
     19 HG23      -11.2010   24.3502   39.5658 H         1 SUB1        0.000
     20 HG22      -11.1870   26.1270   39.3027 H         1 SUB1        0.000
     21 HG21       -9.6407   25.2144   39.3531 H         1 SUB1        0.000
     22 H1        -17.0153   19.6814   40.9011 H         1 SUB1        0.000
     23 H2        -16.0786   18.3779   41.7073 H         1 SUB1        0.000
     24 H3        -17.4845   17.9631   40.6690 H         1 SUB1        0.000
     25 H4         -8.0019   23.7631   34.0021 H         1 SUB1        0.000
     26 H5         -5.3963   22.6325   33.1916 H         1 SUB1        0.000
     27 H6         -5.5127   24.4249   33.1709 H         1 SUB1        0.000
     28 H7         -7.7642   24.0545   31.9523 H         1 SUB1        0.000
     29 H8         -7.1832   22.3763   31.6823 H         1 SUB1        0.000
     30 H9         -7.6984   25.2973   30.0288 H         1 SUB1        0.000
     31 H10        -6.5951   25.9612   27.8787 H         1 SUB1        0.000
     32 H11        -4.3268   25.0594   27.3616 H         1 SUB1        0.000
     33 H12        -3.2193   23.3925   28.8532 H         1 SUB1        0.000
     34 H13        -4.4708   22.4961   30.8417 H         1 SUB1        0.000
     35 C         -15.7140   18.5650   39.5850 C.2       1 SUB1        0.000
     36 O         -15.1390   17.4920   39.2350 O.2       1 SUB1        0.000
     37 CH3       -16.6380   18.6530   40.8010 C.3       1 SUB1        0.000
     38 N         -15.6320   19.7190   38.9060 N.am      1 SUB1        0.000
     39 CA        -14.8230   19.8430   37.7090 C.3       1 SUB1        0.000
     40 C         -13.5520   20.6370   38.0640 C.2       1 SUB1        0.000
     41 O         -13.5300   21.8720   38.0000 O.2       1 SUB1        0.000
     42 CB        -15.6560   20.5910   36.6980 C.3       1 SUB1        0.000
     43 N         -12.5350   19.9370   38.5850 N.am      1 SUB1        0.000
     44 CA        -11.2670   20.5480   38.9520 C.3       1 SUB1        0.000
     45 C         -10.8150   21.3500   37.7690 C.2       1 SUB1        0.000
     46 O         -10.7290   20.8130   36.6500 O.2       1 SUB1        0.000
     47 CB        -10.2700   19.4580   39.1440 C.3       1 SUB1        0.000
     48 CG        -10.9600   18.1360   38.7770 C.3       1 SUB1        0.000
     49 CD        -12.4030   18.5000   38.4260 C.3       1 SUB1        0.000
     50 N         -10.5810   22.6310   38.0010 N.am      1 SUB1        0.000
     51 CA        -10.1080   23.6630   37.0890 C.3       1 SUB1        0.000
     52 C          -8.5480   23.7550   37.1250 C.2       1 SUB1        0.000
     53 O          -8.1160   24.9530   36.5630 O.2       1 SUB1        0.000
     54 CB        -10.7780   24.9550   37.5420 C.3       1 SUB1        0.000
     55 CG1       -12.1960   24.7750   37.1310 C.3       1 SUB1        0.000
     56 CG2       -10.6960   25.1770   39.0450 C.3       1 SUB1        0.000
     57 C1         -7.9720   22.7280   36.1770 C.3       1 SUB1        0.000
     58 F1         -7.9340   21.4980   36.5290 F         1 SUB1        0.000
     59 F2         -8.6720   22.5810   35.1320 F         1 SUB1        0.000
     60 C2         -6.7660   22.9560   35.3890 C.2       1 SUB1        0.000
     61 O1         -5.9140   22.0690   35.4780 O.2       1 SUB1        0.000
     62 N1         -7.0740   23.4350   34.1790 N.am      1 SUB1        0.000
     63 C3         -6.0850   23.4870   33.1180 C.3       1 SUB1        0.000
     64 C4         -6.8730   23.4210   31.8320 C.3       1 SUB1        0.000
     65 C5         -6.1460   23.8760   30.5680 C.ar      1 SUB1        0.000
     66 C6         -6.7500   24.8570   29.7430 C.ar      1 SUB1        0.000
     67 C7         -6.1170   25.2590   28.5520 C.ar      1 SUB1        0.000
     68 C8         -4.8410   24.7240   28.2550 C.ar      1 SUB1        0.000
     69 C9         -4.2110   23.7600   29.0910 C.ar      1 SUB1        0.000
     70 C10        -4.8920   23.2880   30.2330 C.ar      1 SUB1        0.000
@<TRIPOS>BOND
     1   38    1 1  
     2   39    2 1  
     3   42    3 1  
     4   42    4 1  
     5   42    5 1  
     6   44    6 1  
     7   47    7 1  
     8   47    8 1  
     9   48    9 1  
    10   48   10 1  
    11   49   11 1  
    12   49   12 1  
    13   50   13 1  
    14   51   14 1  
    15   54   15 1  
    16   55   16 1  
    17   55   17 1  
    18   55   18 1  
    19   56   19 1  
    20   56   20 1  
    21   56   21 1  
    22   37   22 1  
    23   37   23 1  
    24   37   24 1  
    25   62   25 1  
    26   63   26 1  
    27   63   27 1  
    28   64   28 1  
    29   64   29 1  
    30   66   30 1  
    31   67   31 1  
    32   68   32 1  
    33   69   33 1  
    34   70   34 1  
    35   36   35 2  
    36   35   37 1  
    37   39   38 1  
    38   39   42 1  
    39   39   40 1  
    40   40   41 2  
    41   38   35 am 
    42   44   45 1  
    43   44   47 1  
    44   44   43 1  
    45   43   49 1  
    46   49   48 1  
    47   48   47 1  
    48   45   46 2  
    49   43   40 am 
    50   51   50 1  
    51   51   54 1  
    52   51   52 1  
    53   52   53 2  
    54   54   56 1  
    55   54   55 1  
    56   50   45 am 
    57   52   57 1  
    58   57   58 1  
    59   57   59 1  
    60   57   60 1  
    61   60   61 2  
    62   60   62 am 
    63   62   63 1  
    64   63   64 1  
    65   64   65 1  
    66   65   66 ar 
    67   65   70 ar 
    68   66   67 ar 
    69   67   68 ar 
    70   68   69 ar 
    71   69   70 ar 
@<TRIPOS>SUBSTRUCTURE
     1 SUB1        1 GROUP

