### Name: 4hvp_ligand
### Creating user name: arthur
### Creation time: Tue Nov 27 11:30:25 2001


@<TRIPOS>MOLECULE
4hvp_ligand
  123   122     1     0     0
SMALL
USER_CHARGES


@<TRIPOS>ATOM
      1 C           1.9720    4.3920    7.9970 C.2       1 SUB1        0.000
      2 O           1.9090    3.3480    7.3680 O.2       1 SUB1        0.000
      3 CH3         1.1650    5.6160    7.7880 C.3       1 SUB1        0.000
      4 N           2.7410    4.4910    9.0620 N.am      1 SUB1        0.000
      5 CA          3.7740    3.5100    9.4190 C.3       1 SUB1        0.000
      6 C           3.4780    3.1630   10.8650 C.2       1 SUB1        0.000
      7 O           3.3770    3.9810   11.8110 O.2       1 SUB1        0.000
      8 CB          5.0260    4.3200    8.9540 C.3       1 SUB1        0.000
      9 OG1         5.1560    4.0210    7.5110 O.3       1 SUB1        0.000
     10 CG2         6.3470    4.2220    9.7440 C.3       1 SUB1        0.000
     11 N           3.3200    1.8670   11.1000 N.am      1 SUB1        0.000
     12 CA          2.9300    1.4550   12.5020 C.3       1 SUB1        0.000
     13 C           4.0130    0.5490   12.9650 C.2       1 SUB1        0.000
     14 O           4.2460   -0.6720   12.8580 O.2       1 SUB1        0.000
     15 CB          1.3560    1.4330   12.2990 C.3       1 SUB1        0.000
     16 CG1         0.8900    0.8560   10.9850 C.3       1 SUB1        0.000
     17 CG2         0.6060    2.8620   12.2450 C.3       1 SUB1        0.000
     18 CD1        -0.3730    1.5990   10.3850 C.3       1 SUB1        0.000
     19 N           4.9600    1.2060   13.6140 N.am      1 SUB1        0.000
     20 CA          6.1910    0.4900   14.1400 C.3       1 SUB1        0.000
     21 C           5.9010    0.0720   15.5800 C.3       1 SUB1        0.000
     22 CB          7.5010    1.1590   13.8860 C.3       1 SUB1        0.000
     23 CG          7.9410    1.5970   12.4920 C.3       1 SUB1        0.000
     24 CD          8.4330    0.4550   11.6270 C.3       1 SUB1        0.000
     25 CE          9.2510    1.0450   10.4690 C.3       1 SUB1        0.000
     26 N           4.9760   -0.9980   15.4280 N.4       1 SUB1        1.000
     27 CA          5.0880   -2.1330   16.3340 C.3       1 SUB1        0.000
     28 C           5.9600   -3.2440   15.7850 C.2       1 SUB1        0.000
     29 O           6.2790   -3.6330   14.6560 O.2       1 SUB1        0.000
     30 CB          3.6770   -2.6050   16.6130 C.3       1 SUB1        0.000
     31 CG          3.0810   -3.6400   17.5040 C.3       1 SUB1        0.000
     32 CD          2.9280   -5.0330   16.9250 C.3       1 SUB1        0.000
     33 CE          2.2690   -5.0450   15.5730 C.3       1 SUB1        0.000
     34 N           6.4800   -3.9410   16.7520 N.am      1 SUB1        0.000
     35 CA          7.4150   -5.1050   16.5010 C.3       1 SUB1        0.000
     36 C           7.1220   -5.9610   17.7140 C.2       1 SUB1        0.000
     37 O           7.0550   -5.7290   18.9500 O.2       1 SUB1        0.000
     38 CB          8.6550   -4.5070   16.0390 C.3       1 SUB1        0.000
     39 CG         10.0620   -4.8040   15.7440 C.3       1 SUB1        0.000
     40 CD         10.3240   -5.8500   16.8230 C.2       1 SUB1        0.000
     41 OE1        10.8700   -5.6200   17.8500 O.2       1 SUB1        0.000
     42 NE2         9.7240   -6.9540   16.3810 N.am      1 SUB1        0.000
     43 N           6.7310   -7.1370   17.2120 N.am      1 SUB1        0.000
     44 CA          6.3840   -8.2740   18.1300 C.3       1 SUB1        0.000
     45 C           7.7340   -8.8690   18.5210 C.2       1 SUB1        0.000
     46 O           8.6120   -9.2010   17.6710 O.2       1 SUB1        0.000
     47 CB          5.4670   -9.1540   17.2570 C.3       1 SUB1        0.000
     48 CG          4.0610   -8.6760   17.1360 C.3       1 SUB1        0.000
     49 CD          3.3780   -8.7240   18.4830 C.3       1 SUB1        0.000
     50 NE          3.4810   -7.6460   19.4390 N.pl3     1 SUB1        0.000
     51 CZ          4.1470   -7.3960   20.5560 C.cat     1 SUB1        0.000
     52 NH1         4.1950   -6.1950   21.1980 N.pl3     1 SUB1        0.500
     53 NH2         4.8430   -8.4250   21.0990 N.pl3     1 SUB1        0.500
     54 N           8.1520   -9.1190   19.6390 N.am      1 SUB1        0.000
     55 H           2.6139    5.2804    9.6626 H         1 SUB1        0.000
     56 HA          3.7115    2.5826    8.8308 H         1 SUB1        0.000
     57 HB          4.7441    5.3799    9.0376 H         1 SUB1        0.000
     58 HG1         5.9056    4.4854    7.1577 H         1 SUB1        0.000
     59 HG22        7.1943    4.2176    9.0425 H         1 SUB1        0.000
     60 HG21        6.3539    3.2931   10.3331 H         1 SUB1        0.000
     61 HG23        6.4350    5.0854   10.4199 H         1 SUB1        0.000
     62 H           3.4537    1.1884   10.3778 H         1 SUB1        0.000
     63 HA          3.0647    2.3081   13.1832 H         1 SUB1        0.000
     64 HB          0.9458    0.8396   13.1295 H         1 SUB1        0.000
     65 HG12        0.6310   -0.2016   11.1408 H         1 SUB1        0.000
     66 HG11        1.7143    0.9287   10.2603 H         1 SUB1        0.000
     67 HG23        0.7671    3.3967   13.1927 H         1 SUB1        0.000
     68 HG22       -0.4718    2.7049   12.0914 H         1 SUB1        0.000
     69 HG21        1.0117    3.4579   11.4142 H         1 SUB1        0.000
     70 HD13       -1.2145    1.5183   11.0888 H         1 SUB1        0.000
     71 HD12       -0.6505    1.1351    9.4270 H         1 SUB1        0.000
     72 HD11       -0.1314    2.6597   10.2223 H         1 SUB1        0.000
     73 H           6.2540   -3.6993   17.6957 H         1 SUB1        0.000
     74 HA          7.0663   -5.6986   15.6431 H         1 SUB1        0.000
     75 HB2         8.7701   -3.6925   16.7693 H         1 SUB1        0.000
     76 HB1         8.3305   -4.0909   15.0739 H         1 SUB1        0.000
     77 HG2        10.7034   -3.9186   15.8652 H         1 SUB1        0.000
     78 HG1        10.1922   -5.2153   14.7321 H         1 SUB1        0.000
     79 HE21        9.2415   -6.9444   15.5052 H         1 SUB1        0.000
     80 HE22        9.7561   -7.7925   16.9250 H         1 SUB1        0.000
     81 H           6.6694   -7.2600   16.2215 H         1 SUB1        0.000
     82 HA          5.8461   -7.9439   19.0309 H         1 SUB1        0.000
     83 HB2         5.4473  -10.1635   17.6934 H         1 SUB1        0.000
     84 HB1         5.8996   -9.1997   16.2467 H         1 SUB1        0.000
     85 HG2         3.5173   -9.3203   16.4294 H         1 SUB1        0.000
     86 HG1         4.0595   -7.6408   16.7641 H         1 SUB1        0.000
     87 HD2         3.7628   -9.6211   18.9900 H         1 SUB1        0.000
     88 HD1         2.3047   -8.8506   18.2782 H         1 SUB1        0.000
     89 HE          2.8704   -6.8573   19.1820 H         1 SUB1        0.000
     90 HH11        3.6842   -5.3862   20.8162 H         1 SUB1        0.000
     91 HH12        4.7421   -6.0960   22.0651 H         1 SUB1        0.000
     92 HH21        4.8368   -9.3485   20.6428 H         1 SUB1        0.000
     93 HH22        5.3780   -8.2833   21.9677 H         1 SUB1        0.000
     94 ****        1.4632    6.3812    8.5198 H         1 SUB1        0.000
     95 ****        0.0988    5.3791    7.9191 H         1 SUB1        0.000
     96 ****        1.3335    5.9970    6.7699 H         1 SUB1        0.000
     97 ****        4.8635    2.1905   13.7606 H         1 SUB1        0.000
     98 ****        6.2570   -0.4472   13.5680 H         1 SUB1        0.000
     99 ****        5.4551    0.9010   16.1492 H         1 SUB1        0.000
    100 ****        6.8176   -0.2678   16.0843 H         1 SUB1        0.000
    101 ****        8.2739    0.4640   14.2460 H         1 SUB1        0.000
    102 ****        7.5060    2.0668   14.5072 H         1 SUB1        0.000
    103 ****        8.7550    2.3293   12.5978 H         1 SUB1        0.000
    104 ****        7.0848    2.0706   11.9894 H         1 SUB1        0.000
    105 ****        7.5750   -0.1060   11.2282 H         1 SUB1        0.000
    106 ****        9.0657   -0.2181   12.2242 H         1 SUB1        0.000
    107 ****        9.6184    0.2306    9.8274 H         1 SUB1        0.000
    108 ****       10.1057    1.6074   10.8730 H         1 SUB1        0.000
    109 ****        8.6149    1.7195    9.8771 H         1 SUB1        0.000
    110 ****        4.0514   -0.6133   15.5424 H         1 SUB1        0.000
    111 ****        5.0789   -1.3521   14.4899 H         1 SUB1        0.000
    112 ****        5.5407   -1.7887   17.2756 H         1 SUB1        0.000
    113 ****        3.3144   -2.8993   15.6171 H         1 SUB1        0.000
    114 ****        3.1676   -1.6835   16.9312 H         1 SUB1        0.000
    115 ****        2.0806   -3.2900   17.7983 H         1 SUB1        0.000
    116 ****        3.7192   -3.7186   18.3965 H         1 SUB1        0.000
    117 ****        2.3184   -5.6336   17.6161 H         1 SUB1        0.000
    118 ****        3.9269   -5.4838   16.8307 H         1 SUB1        0.000
    119 ****        2.1897   -6.0814   15.2130 H         1 SUB1        0.000
    120 ****        2.8719   -4.4564   14.8659 H         1 SUB1        0.000
    121 ****        1.2634   -4.6061   15.6513 H         1 SUB1        0.000
    122 ****        9.0644   -9.5114   19.7555 H         1 SUB1        0.000
    123 ****        7.5824   -8.9316   20.4393 H         1 SUB1        0.000
@<TRIPOS>BOND
     1    2    1 2  
     2    1    3 1  
     3    5    4 1  
     4    5    8 1  
     5    5    6 1  
     6    6    7 2  
     7    8   10 1  
     8    8    9 1  
     9    1    4 am 
    10   12   11 1  
    11   12   15 1  
    12   12   13 1  
    13   13   14 2  
    14   15   17 1  
    15   15   16 1  
    16   16   18 1  
    17    6   11 am 
    18   35   34 1  
    19   35   38 1  
    20   35   36 1  
    21   36   37 2  
    22   38   39 1  
    23   39   40 1  
    24   40   42 am 
    25   40   41 2  
    26   44   43 1  
    27   44   47 1  
    28   44   45 1  
    29   45   46 2  
    30   47   48 1  
    31   48   49 1  
    32   49   50 1  
    33   50   51 ar 
    34   51   53 ar 
    35   51   52 ar 
    36   36   43 am 
    37   13   19 am 
    38   19   20 1  
    39   20   21 1  
    40   20   22 1  
    41   21   26 1  
    42   22   23 1  
    43   23   24 1  
    44   24   25 1  
    45   26   27 1  
    46   27   28 1  
    47   27   30 1  
    48   30   31 1  
    49   31   32 1  
    50   32   33 1  
    51   45   54 am 
    52   28   34 am 
    53   28   29 2  
    54    4   55 1  
    55    5   56 1  
    56    8   57 1  
    57    9   58 1  
    58   10   59 1  
    59   10   60 1  
    60   10   61 1  
    61   11   62 1  
    62   12   63 1  
    63   15   64 1  
    64   16   65 1  
    65   16   66 1  
    66   17   67 1  
    67   17   68 1  
    68   17   69 1  
    69   18   70 1  
    70   18   71 1  
    71   18   72 1  
    72   34   73 1  
    73   35   74 1  
    74   38   75 1  
    75   38   76 1  
    76   39   77 1  
    77   39   78 1  
    78   42   79 1  
    79   42   80 1  
    80   43   81 1  
    81   44   82 1  
    82   47   83 1  
    83   47   84 1  
    84   48   85 1  
    85   48   86 1  
    86   49   87 1  
    87   49   88 1  
    88   50   89 1  
    89   52   90 1  
    90   52   91 1  
    91   53   92 1  
    92   53   93 1  
    93    3   94 1  
    94    3   95 1  
    95    3   96 1  
    96   19   97 1  
    97   20   98 1  
    98   21   99 1  
    99   21  100 1  
   100   22  101 1  
   101   22  102 1  
   102   23  103 1  
   103   23  104 1  
   104   24  105 1  
   105   24  106 1  
   106   25  107 1  
   107   25  108 1  
   108   25  109 1  
   109   26  110 1  
   110   26  111 1  
   111   27  112 1  
   112   30  113 1  
   113   30  114 1  
   114   31  115 1  
   115   31  116 1  
   116   32  117 1  
   117   32  118 1  
   118   33  119 1  
   119   33  120 1  
   120   33  121 1  
   121   54  122 1  
   122   54  123 1  
@<TRIPOS>SUBSTRUCTURE
     1 SUB1        1 GROUP

