### Name: 4mdh_ligand
### Creating user name: arthur
### Creation time: Tue Nov 27 11:30:25 2001


@<TRIPOS>MOLECULE
4mdh_ligand
   71    75     1     0     0
SMALL
USER_CHARGES


@<TRIPOS>ATOM
      1 H1         22.0451   34.5802   40.8470 H         1 SUB1        0.000
      2 H2         22.5680   32.9048   40.4645 H         1 SUB1        0.000
      3 H3         22.2499   33.1519   38.2496 H         1 SUB1        0.000
      4 H4         23.5513   35.7881   38.5308 H         1 SUB1        0.000
      5 H5         24.0258   35.2919   36.3095 H         1 SUB1        0.000
      6 H6         21.6154   36.9660   37.9054 H         1 SUB1        0.000
      7 H7         21.2432   36.9231   35.6550 H         1 SUB1        0.000
      8 H8         20.6102   34.3230   36.7169 H         1 SUB1        0.000
      9 H9         19.4977   37.7001   38.2181 H         1 SUB1        0.000
     10 H10        14.1570   36.7214   35.3254 H         1 SUB1        0.000
     11 H11        15.1637   37.8641   36.2547 H         1 SUB1        0.000
     12 H12        16.6331   32.9724   34.9049 H         1 SUB1        0.000
     13 H13        21.6048   31.7142   44.1323 H         1 SUB1        0.000
     14 H14        21.1884   33.0217   42.9731 H         1 SUB1        0.000
     15 H15        19.3399   33.1538   44.2257 H         1 SUB1        0.000
     16 H16        20.9855   35.2191   44.9926 H         1 SUB1        0.000
     17 H17        19.1539   35.8679   46.2801 H         1 SUB1        0.000
     18 H18        22.0469   33.9292   46.8610 H         1 SUB1        0.000
     19 H19        21.1084   34.9565   48.6678 H         1 SUB1        0.000
     20 H20        19.1258   33.2175   47.4517 H         1 SUB1        0.000
     21 H21        18.6865   31.4988   48.7831 H         1 SUB1        0.000
     22 H22        17.1828   29.9277   51.2521 H         1 SUB1        0.000
     23 H23        17.7645   31.1797   50.2061 H         1 SUB1        0.000
     24 H24        21.8091   29.3111   50.0742 H         1 SUB1        0.000
     25 H25        21.7856   30.6954   51.2187 H         1 SUB1        0.000
     26 H26        23.5499   30.9649   49.5153 H         1 SUB1        0.000
     27 H27        22.6798   32.4212   47.7277 H         1 SUB1        0.000
     28 AP         24.7850   34.7770   41.5260 P.3       1 SUB1        0.000
     29 AO1        24.1910   36.0390   42.0250 O.co2     1 SUB1       -0.500
     30 AO2        26.2480   34.7010   41.3590 O.co2     1 SUB1       -0.500
     31 AO5'       23.9930   34.3720   40.2040 O.3       1 SUB1        0.000
     32 AC5'       22.6430   33.9600   40.1630 C.3       1 SUB1        0.000
     33 AC4'       22.1340   34.1230   38.7530 C.3       1 SUB1        0.000
     34 AO4'       20.7340   34.4850   38.7580 O.3       1 SUB1        0.000
     35 AC3'       22.8700   35.1930   37.9050 C.3       1 SUB1        0.000
     36 AO3'       23.5900   34.6070   36.8030 O.3       1 SUB1        0.000
     37 AC2'       21.7510   36.0440   37.3210 C.3       1 SUB1        0.000
     38 AO2'       21.9690   36.3950   35.9660 O.3       1 SUB1        0.000
     39 AC1'       20.5480   35.1020   37.4910 C.3       1 SUB1        0.000
     40 AN9        19.2390   35.7520   37.3230 N.pl3     1 SUB1        0.000
     41 AC8        18.8570   37.0230   37.6550 C.2       1 SUB1        0.000
     42 AN7        17.6550   37.3640   37.2410 N.2       1 SUB1        0.000
     43 AC5        17.1850   36.2420   36.5760 C.2       1 SUB1        0.000
     44 AC6        16.0010   36.0060   35.9200 C.2       1 SUB1        0.000
     45 AN6        15.0310   36.9370   35.8260 N.pl3     1 SUB1        0.000
     46 AN1        15.8570   34.8090   35.3450 N.2       1 SUB1        0.000
     47 AC2        16.8310   33.9230   35.3980 C.2       1 SUB1        0.000
     48 AN3        18.0000   34.0350   35.9630 N.2       1 SUB1        0.000
     49 AC4        18.1110   35.2310   36.5440 C.2       1 SUB1        0.000
     50 O3         24.3450   33.4450   42.3450 O.3       1 SUB1        0.000
     51 NP         24.0480   33.0630   43.8630 P.3       1 SUB1        0.000
     52 NO1        25.1830   33.1650   44.8190 O.co2     1 SUB1       -0.500
     53 NO2        23.7970   31.7110   43.3640 O.co2     1 SUB1       -0.500
     54 NO5'       22.6020   33.4960   44.3920 O.3       1 SUB1        0.000
     55 NC5'       21.4190   32.7930   44.0240 C.3       1 SUB1        0.000
     56 NC4'       20.2400   33.1570   44.8580 C.3       1 SUB1        0.000
     57 NO4'       20.1190   32.1960   45.9300 O.3       1 SUB1        0.000
     58 NC3'       20.3710   34.5070   45.5630 C.3       1 SUB1        0.000
     59 NO3'       19.0710   35.0290   45.8420 O.3       1 SUB1        0.000
     60 NC2'       20.9700   34.1480   46.9100 C.3       1 SUB1        0.000
     61 NO2'       20.7320   35.1850   47.8260 O.3       1 SUB1        0.000
     62 NC1'       20.1440   32.9110   47.1700 C.3       1 SUB1        0.000
     63 NN1        20.6500   32.0380   48.1940 N.pl3     1 SUB1        0.000
     64 NC2        19.7540   31.3750   48.9590 C.2       1 SUB1        0.000
     65 NC3        20.2030   30.5330   49.9730 C.2       1 SUB1        0.000
     66 NC7        19.1350   29.8210   50.7760 C.2       1 SUB1        0.000
     67 NO7        19.4430   28.8350   51.4350 O.2       1 SUB1        0.000
     68 NN7        17.9310   30.3520   50.7420 N.am      1 SUB1        0.000
     69 NC4        21.5830   30.3820   50.1840 C.3       1 SUB1        0.000
     70 NC5        22.4760   31.0710   49.3690 C.2       1 SUB1        0.000
     71 NC6        21.9860   31.8880   48.3760 C.2       1 SUB1        0.000
@<TRIPOS>BOND
     1   32    1 1  
     2   32    2 1  
     3   33    3 1  
     4   35    4 1  
     5   36    5 1  
     6   37    6 1  
     7   38    7 1  
     8   39    8 1  
     9   41    9 1  
    10   45   10 1  
    11   45   11 1  
    12   47   12 1  
    13   55   13 1  
    14   55   14 1  
    15   56   15 1  
    16   58   16 1  
    17   59   17 1  
    18   60   18 1  
    19   61   19 1  
    20   62   20 1  
    21   64   21 1  
    22   68   22 1  
    23   68   23 1  
    24   69   24 1  
    25   69   25 1  
    26   70   26 1  
    27   71   27 1  
    28   28   29 ar 
    29   28   30 ar 
    30   28   31 1  
    31   28   50 1  
    32   31   32 1  
    33   32   33 1  
    34   33   34 1  
    35   33   35 1  
    36   34   39 1  
    37   35   36 1  
    38   35   37 1  
    39   37   38 1  
    40   37   39 1  
    41   39   40 1  
    42   40   41 1  
    43   40   49 1  
    44   41   42 2  
    45   42   43 1  
    46   43   44 1  
    47   43   49 2  
    48   44   45 1  
    49   44   46 2  
    50   46   47 1  
    51   47   48 2  
    52   48   49 1  
    53   50   51 1  
    54   51   52 ar 
    55   51   53 ar 
    56   51   54 1  
    57   54   55 1  
    58   55   56 1  
    59   56   57 1  
    60   56   58 1  
    61   57   62 1  
    62   58   59 1  
    63   58   60 1  
    64   60   61 1  
    65   60   62 1  
    66   62   63 1  
    67   63   64 1  
    68   63   71 1  
    69   64   65 2  
    70   65   66 1  
    71   65   69 1  
    72   66   67 2  
    73   66   68 am 
    74   69   70 1  
    75   70   71 2  
@<TRIPOS>SUBSTRUCTURE
     1 SUB1        1 GROUP

