### Name: 4phv_ligand
### Creating user name: arthur
### Creation time: Tue Nov 27 11:30:25 2001


@<TRIPOS>MOLECULE
4phv_ligand
   88    93     1     0     0
SMALL
USER_CHARGES


@<TRIPOS>ATOM
      1 C1         14.2740   23.8800    4.7040 C.3       1 SUB1        0.000
      2 C3         13.0630   23.3670    3.9880 C.3       1 SUB1        0.000
      3 C4         14.0950   23.7330    6.2420 C.3       1 SUB1        0.000
      4 C6         15.2770   22.9090    6.7150 C.3       1 SUB1        0.000
      5 C9         11.9110   24.2230    3.6800 C.3       1 SUB1        0.000
      6 C12        15.2590   22.8430    8.2380 C.3       1 SUB1        0.000
      7 C13        15.2450   21.4600    6.2260 C.2       1 SUB1        0.000
      8 C16        16.3550   21.9480    8.7590 C.ar      1 SUB1        0.000
      9 C20        16.6070   19.6130    5.3960 C.3       1 SUB1        0.000
     10 C21        18.0260   19.1690    5.7690 C.3       1 SUB1        0.000
     11 C23        16.4960   19.1910    3.9790 C.ar      1 SUB1        0.000
     12 C25        17.3700   18.1740    3.7190 C.ar      1 SUB1        0.000
     13 C26        18.1920   17.8580    4.9290 C.3       1 SUB1        0.000
     14 C30        10.9560   24.3500    4.8800 C.2       1 SUB1        0.000
     15 C31        11.0920   23.5370    2.5550 C.3       1 SUB1        0.000
     16 C33         9.7220   24.1410    2.3520 C.ar      1 SUB1        0.000
     17 C37        17.5020   17.5510    2.4610 C.ar      1 SUB1        0.000
     18 C38        16.6360   18.0180    1.4850 C.ar      1 SUB1        0.000
     19 C39        15.7560   19.0840    1.7360 C.ar      1 SUB1        0.000
     20 C40        15.6460   19.6780    2.9860 C.ar      1 SUB1        0.000
     21 C45         8.5790   23.5260    2.8330 C.ar      1 SUB1        0.000
     22 C46         7.3220   24.1070    2.6460 C.ar      1 SUB1        0.000
     23 C47         7.1770   25.3410    1.9760 C.ar      1 SUB1        0.000
     24 C48         8.3370   25.9830    1.5050 C.ar      1 SUB1        0.000
     25 C49         9.5510   25.3390    1.6850 C.ar      1 SUB1        0.000
     26 C55        17.6910   22.2530    8.5280 C.ar      1 SUB1        0.000
     27 C56        18.6940   21.3890    9.0150 C.ar      1 SUB1        0.000
     28 C57        18.3210   20.2390    9.7120 C.ar      1 SUB1        0.000
     29 C58        16.9610   19.8950    9.9220 C.ar      1 SUB1        0.000
     30 C59        15.9950   20.7730    9.4240 C.ar      1 SUB1        0.000
     31 C68         7.4160   27.0590    6.7900 C.3       1 SUB1        0.000
     32 C69         8.1740   26.6170    5.5020 C.3       1 SUB1        0.000
     33 C71         9.3080   25.7010    6.0440 C.3       1 SUB1        0.000
     34 C73         9.6460   26.4250    7.3170 C.ar      1 SUB1        0.000
     35 C76         8.5840   27.1890    7.7290 C.ar      1 SUB1        0.000
     36 C77        10.8630   26.3550    7.9970 C.ar      1 SUB1        0.000
     37 C78        10.9630   27.1200    9.1510 C.ar      1 SUB1        0.000
     38 C79         9.8670   27.8630    9.5950 C.ar      1 SUB1        0.000
     39 C80         8.6560   27.9530    8.9010 C.ar      1 SUB1        0.000
     40 O2         14.6740   25.1820    4.4070 O.3       1 SUB1        0.000
     41 O15        14.1690   20.8740    6.2710 O.2       1 SUB1        0.000
     42 O22        19.0830   20.0530    5.4600 O.3       1 SUB1        0.000
     43 O36        10.7720   23.3470    5.6250 O.2       1 SUB1        0.000
     44 O70         8.7470   27.7300    4.7940 O.3       1 SUB1        0.000
     45 N19        16.3800   20.9810    5.7720 N.am      1 SUB1        0.000
     46 N86        10.3560   25.4970    5.0420 N.am      1 SUB1        0.000
     47 ****       15.1058   23.2261    4.4030 H         1 SUB1        0.000
     48 ****       12.6743   22.5387    4.5985 H         1 SUB1        0.000
     49 ****       13.4201   22.9758    3.0239 H         1 SUB1        0.000
     50 ****       13.1512   23.2165    6.4708 H         1 SUB1        0.000
     51 ****       14.0986   24.7213    6.7249 H         1 SUB1        0.000
     52 ****       16.2035   23.3890    6.3669 H         1 SUB1        0.000
     53 ****       12.2591   25.2175    3.3641 H         1 SUB1        0.000
     54 ****       14.2867   22.4488    8.5684 H         1 SUB1        0.000
     55 ****       15.4006   23.8560    8.6426 H         1 SUB1        0.000
     56 ****       15.8789   19.0215    5.9705 H         1 SUB1        0.000
     57 ****       18.0677   18.9543    6.8470 H         1 SUB1        0.000
     58 ****       17.7965   16.9835    5.4664 H         1 SUB1        0.000
     59 ****       19.2449   17.6806    4.6645 H         1 SUB1        0.000
     60 ****       10.9693   22.4746    2.8122 H         1 SUB1        0.000
     61 ****       11.6536   23.6238    1.6132 H         1 SUB1        0.000
     62 ****       18.2257   16.7665    2.2717 H         1 SUB1        0.000
     63 ****       16.6377   17.5507    0.5069 H         1 SUB1        0.000
     64 ****       15.1409   19.4560    0.9246 H         1 SUB1        0.000
     65 ****       14.9386   20.4762    3.1796 H         1 SUB1        0.000
     66 ****        8.6600   22.5827    3.3609 H         1 SUB1        0.000
     67 ****        6.4410   23.6002    3.0228 H         1 SUB1        0.000
     68 ****        6.1979   25.7823    1.8283 H         1 SUB1        0.000
     69 ****        8.2830   26.9496    1.0173 H         1 SUB1        0.000
     70 ****       10.4343   25.8115    1.2707 H         1 SUB1        0.000
     71 ****       17.9601   23.1476    7.9781 H         1 SUB1        0.000
     72 ****       19.7412   21.6154    8.8499 H         1 SUB1        0.000
     73 ****       19.0942   19.5887   10.1049 H         1 SUB1        0.000
     74 ****       16.6827   18.9884   10.4471 H         1 SUB1        0.000
     75 ****       14.9451   20.5379    9.5562 H         1 SUB1        0.000
     76 ****        6.7001   26.2953    7.1280 H         1 SUB1        0.000
     77 ****        6.8924   28.0163    6.6506 H         1 SUB1        0.000
     78 ****        7.5031   26.0627    4.8292 H         1 SUB1        0.000
     79 ****        8.9120   24.7060    6.2954 H         1 SUB1        0.000
     80 ****       11.6824   25.7391    7.6444 H         1 SUB1        0.000
     81 ****       11.8927   27.1407    9.7081 H         1 SUB1        0.000
     82 ****        9.9602   28.4010   10.5315 H         1 SUB1        0.000
     83 ****        7.8331   28.5691    9.2450 H         1 SUB1        0.000
     84 ****       14.7837   25.2731    3.4678 H         1 SUB1        0.000
     85 ****       18.9872   20.8506    5.9671 H         1 SUB1        0.000
     86 ****        8.0519   28.2873    4.4644 H         1 SUB1        0.000
     87 ****       17.1458   21.6176    5.6808 H         1 SUB1        0.000
     88 ****       10.6217   26.2656    4.4601 H         1 SUB1        0.000
@<TRIPOS>BOND
     1    1    2 1  
     2    1    3 1  
     3    1   40 1  
     4    2    5 1  
     5    3    4 1  
     6    4    6 1  
     7    4    7 1  
     8    5   14 1  
     9    6    8 1  
    10    7   41 2  
    11    7   45 am 
    12    8   26 ar 
    13    8   30 ar 
    14    9   10 1  
    15    9   11 1  
    16   45    9 1  
    17   10   13 1  
    18   10   42 1  
    19   11   20 ar 
    20   11   12 ar 
    21   12   13 1  
    22   12   17 ar 
    23   14   43 2  
    24   14   46 am 
    25    5   15 1  
    26   15   16 1  
    27   16   21 ar 
    28   16   25 ar 
    29   17   18 ar 
    30   18   19 ar 
    31   19   20 ar 
    32   21   22 ar 
    33   22   23 ar 
    34   23   24 ar 
    35   24   25 ar 
    36   26   27 ar 
    37   27   28 ar 
    38   28   29 ar 
    39   29   30 ar 
    40   32   31 1  
    41   31   35 1  
    42   33   32 1  
    43   33   34 1  
    44   46   33 1  
    45   34   35 ar 
    46   34   36 ar 
    47   35   39 ar 
    48   36   37 ar 
    49   37   38 ar 
    50   38   39 ar 
    51   32   44 1  
    52    1   47 1  
    53    2   48 1  
    54    2   49 1  
    55    3   50 1  
    56    3   51 1  
    57    4   52 1  
    58    5   53 1  
    59    6   54 1  
    60    6   55 1  
    61    9   56 1  
    62   10   57 1  
    63   13   58 1  
    64   13   59 1  
    65   15   60 1  
    66   15   61 1  
    67   17   62 1  
    68   18   63 1  
    69   19   64 1  
    70   20   65 1  
    71   21   66 1  
    72   22   67 1  
    73   23   68 1  
    74   24   69 1  
    75   25   70 1  
    76   26   71 1  
    77   27   72 1  
    78   28   73 1  
    79   29   74 1  
    80   30   75 1  
    81   31   76 1  
    82   31   77 1  
    83   32   78 1  
    84   33   79 1  
    85   36   80 1  
    86   37   81 1  
    87   38   82 1  
    88   39   83 1  
    89   40   84 1  
    90   42   85 1  
    91   44   86 1  
    92   45   87 1  
    93   46   88 1  
@<TRIPOS>SUBSTRUCTURE
     1 SUB1        1 GROUP

