### Name: 5cna_ligand
### Creating user name: arthur
### Creation time: Tue Nov 27 11:30:25 2001


@<TRIPOS>MOLECULE
5cna_ligand
   27    27     1     0     0
SMALL
USER_CHARGES


@<TRIPOS>ATOM
      1 C1         63.1610   99.7860   30.0590 C.3       1 SUB1        0.000
      2 C2         62.0000   98.8050   30.3820 C.3       1 SUB1        0.000
      3 C3         61.8380   97.9090   29.2290 C.3       1 SUB1        0.000
      4 C4         61.5720   98.6950   27.9620 C.3       1 SUB1        0.000
      5 C5         62.7180   99.6420   27.6970 C.3       1 SUB1        0.000
      6 C6         62.3870  100.4980   26.4590 C.3       1 SUB1        0.000
      7 C7         65.4730   99.8080   29.6950 C.3       1 SUB1        0.000
      8 O1         64.3520   98.9880   29.8820 O.3       1 SUB1        0.000
      9 O2         60.7870   99.4300   30.6640 O.3       1 SUB1        0.000
     10 O3         60.7710   97.0390   29.4530 O.3       1 SUB1        0.000
     11 O4         61.4840   97.7250   26.9400 O.3       1 SUB1        0.000
     12 O5         62.8670  100.5110   28.8370 O.3       1 SUB1        0.000
     13 O6         61.5130  101.5550   26.8280 O.3       1 SUB1        0.000
     14 ****       63.2995  100.4970   30.8868 H         1 SUB1        0.000
     15 ****       62.2861   98.2113   31.2627 H         1 SUB1        0.000
     16 ****       62.7613   97.3250   29.1009 H         1 SUB1        0.000
     17 ****       60.6325   99.2614   28.0424 H         1 SUB1        0.000
     18 ****       63.6458   99.0758   27.5276 H         1 SUB1        0.000
     19 ****       61.8999   99.8692   25.6992 H         1 SUB1        0.000
     20 ****       63.3158  100.9187   26.0463 H         1 SUB1        0.000
     21 ****       66.3674   99.1816   29.5624 H         1 SUB1        0.000
     22 ****       65.6053  100.4545   30.5751 H         1 SUB1        0.000
     23 ****       65.3262  100.4315   28.8007 H         1 SUB1        0.000
     24 ****       60.8948  100.0086   31.4098 H         1 SUB1        0.000
     25 ****       60.9294   96.5413   30.2466 H         1 SUB1        0.000
     26 ****       60.7592   97.1383   27.1218 H         1 SUB1        0.000
     27 ****       61.3110  102.0806   26.0628 H         1 SUB1        0.000
@<TRIPOS>BOND
     1    1    2 1  
     2    1    8 1  
     3    1   12 1  
     4    2    3 1  
     5    2    9 1  
     6    3    4 1  
     7    3   10 1  
     8    4    5 1  
     9    4   11 1  
    10    5    6 1  
    11    5   12 1  
    12    6   13 1  
    13    8    7 1  
    14    1   14 1  
    15    2   15 1  
    16    3   16 1  
    17    4   17 1  
    18    5   18 1  
    19    6   19 1  
    20    6   20 1  
    21    7   21 1  
    22    7   22 1  
    23    7   23 1  
    24    9   24 1  
    25   10   25 1  
    26   11   26 1  
    27   13   27 1  
@<TRIPOS>SUBSTRUCTURE
     1 SUB1        1 GROUP

