### Name: 5enl_ligand
### Creating user name: arthur
### Creation time: Tue Nov 27 11:30:25 2001


@<TRIPOS>MOLECULE
5enl_ligand
   15    14     1     0     0
SMALL
USER_CHARGES


@<TRIPOS>ATOM
      1 H1         94.2910   46.3450   25.7067 H         1 SUB1        0.000
      2 H2         94.1016   48.4344   26.4461 H         1 SUB1        0.000
      3 H3         95.1618   48.8843   25.0676 H         1 SUB1        0.000
      4 H4         95.8162   49.8038   27.0415 H         1 SUB1        0.000
      5 C1         96.1970   46.2320   26.7160 C.2       1 SUB1        0.000
      6 C2         95.2760   46.8320   25.6560 C.3       1 SUB1        0.000
      7 C3         95.1030   48.3150   26.0070 C.3       1 SUB1        0.000
      8 P          95.0450   45.6890   23.2740 P.3       1 SUB1        0.000
      9 O11        95.7470   45.0990   27.1410 O.co2     1 SUB1       -0.500
     10 O12        97.2630   46.8510   27.0750 O.co2     1 SUB1       -0.500
     11 O31        96.0300   48.8880   26.9070 O.3       1 SUB1        0.000
     12 O1P        95.8330   46.5820   24.3330 O.3       1 SUB1        0.000
     13 O2P        95.4430   44.2810   23.5690 O.co2     1 SUB1       -0.500
     14 O3P        93.5780   45.9070   23.5320 O.co2     1 SUB1       -0.500
     15 O4P        95.4270   46.0670   21.9120 O.co2     1 SUB1       -0.500
@<TRIPOS>BOND
     1    6    1 1  
     2    7    2 1  
     3    7    3 1  
     4   11    4 1  
     5    6    5 1  
     6    5    9 ar 
     7    5   10 ar 
     8    6    7 1  
     9    6   12 1  
    10    7   11 1  
    11    8   15 ar 
    12    8   14 ar 
    13    8   13 ar 
    14   12    8 1  
@<TRIPOS>SUBSTRUCTURE
     1 SUB1        1 GROUP

