### Name: 5hvp_ligand
### Creating user name: arthur
### Creation time: Tue Nov 27 11:30:25 2001


@<TRIPOS>MOLECULE
5hvp_ligand
  101   100     1     0     0
SMALL
USER_CHARGES


@<TRIPOS>ATOM
      1 C           4.9490   27.7580    6.7930 C.2       1 SUB1        0.000
      2 O           4.8000   26.6780    7.3930 O.2       1 SUB1        0.000
      3 CH31        4.1710   29.0120    7.1160 C.3       1 SUB1        0.000
      4 N           5.9300   27.8410    5.8690 N.am      1 SUB1        0.000
      5 CA          6.6880   26.5740    5.6270 C.3       1 SUB1        0.000
      6 C           8.1830   26.7930    5.8600 C.2       1 SUB1        0.000
      7 O           8.6900   27.9100    5.6750 O.2       1 SUB1        0.000
      8 CB          6.5290   26.1780    4.1390 C.3       1 SUB1        0.000
      9 CG1         7.6860   25.2560    3.6850 C.3       1 SUB1        0.000
     10 CG2         5.1660   25.5630    3.8050 C.3       1 SUB1        0.000
     11 N           8.8380   25.6700    6.1850 N.am      1 SUB1        0.000
     12 CA         10.3010   25.6890    6.4340 C.3       1 SUB1        0.000
     13 C          10.9780   24.5530    5.7000 C.2       1 SUB1        0.000
     14 O          10.5690   23.3860    5.7170 O.2       1 SUB1        0.000
     15 CB         10.4180   25.5900    7.9830 C.3       1 SUB1        0.000
     16 CG1        11.7990   25.1850    8.4800 C.3       1 SUB1        0.000
     17 CG2         9.8950   26.9110    8.6210 C.3       1 SUB1        0.000
     18 N          12.1260   24.8780    5.0080 N.am      1 SUB1        0.000
     19 CA         12.8460   23.6430    4.4970 C.3       1 SUB1        0.000
     20 CB         12.2280   23.4170    3.0920 C.3       1 SUB1        0.000
     21 CG         10.7750   23.8680    2.8430 C.3       1 SUB1        0.000
     22 CD1        10.4850   24.2640    1.3860 C.3       1 SUB1        0.000
     23 CD2         9.7060   22.8460    3.3260 C.3       1 SUB1        0.000
     24 CH         14.3770   23.7830    4.6590 C.3       1 SUB1        0.000
     25 OH         14.6900   25.0860    5.2140 O.3       1 SUB1        0.000
     26 CM         15.0730   22.7550    5.6340 C.3       1 SUB1        0.000
     27 C          14.7670   21.2860    5.3040 C.2       1 SUB1        0.000
     28 O          13.6660   20.7390    5.5240 O.2       1 SUB1        0.000
     29 N          15.8270   20.6740    4.7660 N.am      1 SUB1        0.000
     30 CA         16.2270   19.2820    5.0450 C.3       1 SUB1        0.000
     31 C          17.7040   19.1620    5.3970 C.2       1 SUB1        0.000
     32 O          18.6570   19.7380    4.8550 O.2       1 SUB1        0.000
     33 CB         15.8550   18.4330    3.7970 C.3       1 SUB1        0.000
     34 N          17.9130   18.3890    6.4650 N.am      1 SUB1        0.000
     35 CA         19.2160   17.9340    6.9520 C.3       1 SUB1        0.000
     36 CB         19.4160   18.4410    8.4250 C.3       1 SUB1        0.000
     37 CG         19.4920   19.9880    8.5850 C.3       1 SUB1        0.000
     38 CD1        18.0690   20.5930    8.5530 C.3       1 SUB1        0.000
     39 CD2        20.2460   20.4040    9.8540 C.3       1 SUB1        0.000
     40 CH         19.2480   16.4000    6.7170 C.3       1 SUB1        0.000
     41 OH         18.0830   15.7450    7.2880 O.3       1 SUB1        0.000
     42 CM         19.3170   15.9940    5.2110 C.3       1 SUB1        0.000
     43 C          20.3470   14.8580    5.0010 C.2       1 SUB1        0.000
     44 O          20.9360   14.3020    5.9360 O.co2     1 SUB1       -0.500
     45 OXT        20.5730   14.5520    3.7030 O.co2     1 SUB1       -0.500
     46 H           6.1354   28.6893    5.3809 H         1 SUB1        0.000
     47 HA          6.3097   25.7781    6.2853 H         1 SUB1        0.000
     48 HB          6.6062   27.1072    3.5554 H         1 SUB1        0.000
     49 HG13        8.6434   25.7852    3.8005 H         1 SUB1        0.000
     50 HG12        7.5437   24.9818    2.6293 H         1 SUB1        0.000
     51 HG11        7.6934   24.3457    4.3025 H         1 SUB1        0.000
     52 HG23        5.0230   24.6459    4.3953 H         1 SUB1        0.000
     53 HG22        5.1266   25.3189    2.7332 H         1 SUB1        0.000
     54 HG21        4.3699   26.2826    4.0467 H         1 SUB1        0.000
     55 H           8.3351   24.8090    6.2606 H         1 SUB1        0.000
     56 HA         10.7374   26.6375    6.0876 H         1 SUB1        0.000
     57 HB          9.7354   24.7885    8.3018 H         1 SUB1        0.000
     58 HG13       12.0557   24.1925    8.0812 H         1 SUB1        0.000
     59 HG12       11.7971   25.1491    9.5794 H         1 SUB1        0.000
     60 HG11       12.5420   25.9208    8.1385 H         1 SUB1        0.000
     61 HG23       10.5040   27.7556    8.2664 H         1 SUB1        0.000
     62 HG22        9.9659   26.8423    9.7165 H         1 SUB1        0.000
     63 HG21        8.8457   27.0681    8.3307 H         1 SUB1        0.000
     64 H          16.3901   21.1986    4.1275 H         1 SUB1        0.000
     65 HA         15.6475   18.9162    5.9054 H         1 SUB1        0.000
     66 HB3        16.3913   18.8193    2.9177 H         1 SUB1        0.000
     67 HB2        14.7709   18.4946    3.6215 H         1 SUB1        0.000
     68 HB1        16.1396   17.3844    3.9687 H         1 SUB1        0.000
     69 ****        4.4885   29.8236    6.4448 H         1 SUB1        0.000
     70 ****        4.3618   29.3034    8.1594 H         1 SUB1        0.000
     71 ****        3.0962   28.8222    6.9790 H         1 SUB1        0.000
     72 ****       12.4455   25.8141    4.8607 H         1 SUB1        0.000
     73 ****       12.5599   22.7810    5.1175 H         1 SUB1        0.000
     74 ****       12.2714   22.3368    2.8887 H         1 SUB1        0.000
     75 ****       12.8617   23.9519    2.3693 H         1 SUB1        0.000
     76 ****       10.6371   24.7761    3.4483 H         1 SUB1        0.000
     77 ****        9.4331   24.5717    1.2921 H         1 SUB1        0.000
     78 ****       10.6755   23.4039    0.7273 H         1 SUB1        0.000
     79 ****       11.1388   25.0998    1.0961 H         1 SUB1        0.000
     80 ****        9.9139   22.5630    4.3684 H         1 SUB1        0.000
     81 ****        9.7411   21.9500    2.6889 H         1 SUB1        0.000
     82 ****        8.7072   23.3024    3.2623 H         1 SUB1        0.000
     83 ****       14.8289   23.6811    3.6613 H         1 SUB1        0.000
     84 ****       15.6311   25.1703    5.3129 H         1 SUB1        0.000
     85 ****       14.7282   22.9598    6.6583 H         1 SUB1        0.000
     86 ****       16.1613   22.9043    5.5767 H         1 SUB1        0.000
     87 ****       17.1070   18.0944    6.9784 H         1 SUB1        0.000
     88 ****       20.0131   18.3838    6.3419 H         1 SUB1        0.000
     89 ****       20.3533   18.0120    8.8090 H         1 SUB1        0.000
     90 ****       18.5716   18.0768    9.0286 H         1 SUB1        0.000
     91 ****       20.0488   20.3869    7.7243 H         1 SUB1        0.000
     92 ****       18.1324   21.6853    8.6666 H         1 SUB1        0.000
     93 ****       17.4732   20.1727    9.3766 H         1 SUB1        0.000
     94 ****       17.5893   20.3515    7.5930 H         1 SUB1        0.000
     95 ****       21.2516   19.9583    9.8457 H         1 SUB1        0.000
     96 ****       19.6962   20.0519   10.7393 H         1 SUB1        0.000
     97 ****       20.3311   21.5002    9.8872 H         1 SUB1        0.000
     98 ****       20.1476   16.0120    7.2171 H         1 SUB1        0.000
     99 ****       18.1344   14.8102    7.1266 H         1 SUB1        0.000
    100 ****       19.6159   16.8682    4.6140 H         1 SUB1        0.000
    101 ****       18.3254   15.6482    4.8838 H         1 SUB1        0.000
@<TRIPOS>BOND
     1    2    1 2  
     2    1    3 1  
     3    5    4 1  
     4    5    8 1  
     5    5    6 1  
     6    6    7 2  
     7    8   10 1  
     8    8    9 1  
     9    1    4 am 
    10   12   11 1  
    11   12   15 1  
    12   12   13 1  
    13   13   14 2  
    14   15   17 1  
    15   15   16 1  
    16    6   11 am 
    17   30   29 1  
    18   30   33 1  
    19   30   31 1  
    20   31   32 2  
    21   18   19 1  
    22   19   20 1  
    23   19   24 1  
    24   20   21 1  
    25   21   22 1  
    26   21   23 1  
    27   24   25 1  
    28   24   26 1  
    29   26   27 1  
    30   27   28 2  
    31   34   35 1  
    32   35   36 1  
    33   35   40 1  
    34   36   37 1  
    35   37   38 1  
    36   37   39 1  
    37   40   41 1  
    38   40   42 1  
    39   42   43 1  
    40   43   44 ar 
    41   43   45 ar 
    42   13   18 am 
    43   27   29 am 
    44   31   34 am 
    45    4   46 1  
    46    5   47 1  
    47    8   48 1  
    48    9   49 1  
    49    9   50 1  
    50    9   51 1  
    51   10   52 1  
    52   10   53 1  
    53   10   54 1  
    54   11   55 1  
    55   12   56 1  
    56   15   57 1  
    57   16   58 1  
    58   16   59 1  
    59   16   60 1  
    60   17   61 1  
    61   17   62 1  
    62   17   63 1  
    63   29   64 1  
    64   30   65 1  
    65   33   66 1  
    66   33   67 1  
    67   33   68 1  
    68    3   69 1  
    69    3   70 1  
    70    3   71 1  
    71   18   72 1  
    72   19   73 1  
    73   20   74 1  
    74   20   75 1  
    75   21   76 1  
    76   22   77 1  
    77   22   78 1  
    78   22   79 1  
    79   23   80 1  
    80   23   81 1  
    81   23   82 1  
    82   24   83 1  
    83   25   84 1  
    84   26   85 1  
    85   26   86 1  
    86   34   87 1  
    87   35   88 1  
    88   36   89 1  
    89   36   90 1  
    90   37   91 1  
    91   38   92 1  
    92   38   93 1  
    93   38   94 1  
    94   39   95 1  
    95   39   96 1  
    96   39   97 1  
    97   40   98 1  
    98   41   99 1  
    99   42  100 1  
   100   42  101 1  
@<TRIPOS>SUBSTRUCTURE
     1 SUB1        1 GROUP

