### Name: 5p21_ligand
### Creating user name: arthur
### Creation time: Tue Nov 27 11:30:26 2001


@<TRIPOS>MOLECULE
5p21_ligand
   45    47     1     0     0
SMALL
USER_CHARGES


@<TRIPOS>ATOM
      1 H1          7.3440   32.5289   22.3528 H         1 SUB1        0.000
      2 H2         11.1268   32.8464   21.8083 H         1 SUB1        0.000
      3 H3         10.4477   34.4753   22.1431 H         1 SUB1        0.000
      4 H4         12.7740   34.3747   22.8927 H         1 SUB1        0.000
      5 H5         11.8830   36.4974   21.3621 H         1 SUB1        0.000
      6 H6         13.9304   37.4359   21.9427 H         1 SUB1        0.000
      7 H7         12.5085   35.4843   19.2361 H         1 SUB1        0.000
      8 H8         14.4510   36.5704   18.6157 H         1 SUB1        0.000
      9 H9         15.2131   34.8027   20.5578 H         1 SUB1        0.000
     10 H10        12.4467   33.4037   18.1275 H         1 SUB1        0.000
     11 H11        18.5601   32.2689   16.4808 H         1 SUB1        0.000
     12 H12        19.3476   33.7092   19.5779 H         1 SUB1        0.000
     13 H13        19.9648   33.0022   18.0607 H         1 SUB1        0.000
     14 PG          5.1130   32.2230   21.9940 P.3       1 SUB1        0.000
     15 O1G         4.8440   32.5960   23.3900 O.co2     1 SUB1       -0.500
     16 O2G         4.2030   32.9100   21.1120 O.co2     1 SUB1       -0.500
     17 O3G         4.6400   30.7690   21.8020 O.co2     1 SUB1       -0.500
     18 PB          7.3100   32.0340   20.1110 P.3       1 SUB1        0.000
     19 O1B         7.4680   30.6050   19.7910 O.co2     1 SUB1       -0.500
     20 O2B         6.6960   32.7750   19.0210 O.co2     1 SUB1       -0.500
     21 N3B         6.7010   32.3030   21.6210 N.am      1 SUB1        0.000
     22 PA          9.2800   34.1400   19.7100 P.3       1 SUB1        0.000
     23 O1A         9.2630   34.2680   18.2200 O.co2     1 SUB1       -0.500
     24 O2A         8.5940   35.1730   20.5100 O.co2     1 SUB1       -0.500
     25 O3A         8.7920   32.6430   20.1520 O.3       1 SUB1        0.000
     26 O5'        10.8260   34.0560   20.1320 O.3       1 SUB1        0.000
     27 C5'        11.1700   33.9110   21.5350 C.3       1 SUB1        0.000
     28 C4'        12.5870   34.4450   21.8110 C.3       1 SUB1        0.000
     29 O4'        13.5600   33.6490   21.0950 O.3       1 SUB1        0.000
     30 C3'        12.8130   35.9100   21.3590 C.3       1 SUB1        0.000
     31 O3'        13.7930   36.5380   22.2210 O.3       1 SUB1        0.000
     32 C2'        13.3250   35.6790   19.9470 C.3       1 SUB1        0.000
     33 O2'        14.1510   36.7500   19.4990 O.3       1 SUB1        0.000
     34 C1'        14.2420   34.4780   20.1560 C.3       1 SUB1        0.000
     35 N9         14.4540   33.7390   18.8960 N.pl3     1 SUB1        0.000
     36 C8         13.5180   33.2620   17.9930 C.2       1 SUB1        0.000
     37 N7         14.0160   32.6360   16.9790 N.2       1 SUB1        0.000
     38 C5         15.4130   32.6940   17.2000 C.2       1 SUB1        0.000
     39 C6         16.5210   32.2190   16.4020 C.2       1 SUB1        0.000
     40 O6         16.5070   31.5910   15.3380 O.2       1 SUB1        0.000
     41 N1         17.7350   32.5030   16.9950 N.am      1 SUB1        0.000
     42 C2         17.9090   33.0820   18.2360 C.2       1 SUB1        0.000
     43 N2         19.1730   33.2800   18.6580 N.pl3     1 SUB1        0.000
     44 N3         16.8840   33.4980   18.9960 N.2       1 SUB1        0.000
     45 C4         15.6750   33.3310   18.3980 C.2       1 SUB1        0.000
@<TRIPOS>BOND
     1   21    1 1  
     2   27    2 1  
     3   27    3 1  
     4   28    4 1  
     5   30    5 1  
     6   31    6 1  
     7   32    7 1  
     8   33    8 1  
     9   34    9 1  
    10   36   10 1  
    11   41   11 1  
    12   43   12 1  
    13   43   13 1  
    14   14   15 ar 
    15   14   16 ar 
    16   14   17 ar 
    17   14   21 1  
    18   18   19 ar 
    19   18   20 ar 
    20   21   18 1  
    21   18   25 1  
    22   22   23 ar 
    23   22   24 ar 
    24   25   22 1  
    25   22   26 1  
    26   26   27 1  
    27   27   28 1  
    28   28   29 1  
    29   28   30 1  
    30   29   34 1  
    31   30   31 1  
    32   30   32 1  
    33   32   33 1  
    34   32   34 1  
    35   34   35 1  
    36   35   36 1  
    37   35   45 1  
    38   36   37 2  
    39   37   38 1  
    40   38   39 1  
    41   38   45 2  
    42   39   40 2  
    43   39   41 am 
    44   41   42 am 
    45   42   43 1  
    46   42   44 2  
    47   44   45 1  
@<TRIPOS>SUBSTRUCTURE
     1 SUB1        1 GROUP

