### Name: 6abp_ligand
### Creating user name: arthur
### Creation time: Tue Nov 27 11:30:27 2001


@<TRIPOS>MOLECULE
6abp_ligand
   20    20     1     0     0
SMALL
USER_CHARGES


@<TRIPOS>ATOM
      1 H1         14.2963   55.5354   55.4649 H         1 SUB1        0.000
      2 H2         12.9906   58.2102   54.5688 H         1 SUB1        0.000
      3 H3         12.3901   55.3659   54.1275 H         1 SUB1        0.000
      4 H4         12.8786   55.7364   51.7121 H         1 SUB1        0.000
      5 H5         15.4265   56.3661   51.9894 H         1 SUB1        0.000
      6 H6         14.8390   55.0017   52.9993 H         1 SUB1        0.000
      7 H7         15.6826   57.0340   56.4518 H         1 SUB1        0.000
      8 H8         12.4110   57.3755   56.7082 H         1 SUB1        0.000
      9 H9         10.4818   56.7727   54.0972 H         1 SUB1        0.000
     10 H10        12.4848   58.0645   51.6392 H         1 SUB1        0.000
     11 C1         14.3290   56.6010   55.1940 C.3       1 SUB1        0.000
     12 C2         12.9450   57.1400   54.8190 C.3       1 SUB1        0.000
     13 C3         12.4230   56.4070   53.7740 C.3       1 SUB1        0.000
     14 C4         13.2900   56.4430   52.4480 C.3       1 SUB1        0.000
     15 C5         14.7570   56.0830   52.8150 C.3       1 SUB1        0.000
     16 O1         14.8230   57.3560   56.2070 O.3       1 SUB1        0.000
     17 O2         12.0900   56.8890   55.9580 O.3       1 SUB1        0.000
     18 O3         11.0620   56.7740   53.3450 O.3       1 SUB1        0.000
     19 O4         13.3570   57.7810   51.8870 O.3       1 SUB1        0.000
     20 O5         15.1350   56.8380   54.0550 O.3       1 SUB1        0.000
@<TRIPOS>BOND
     1   11    1 1  
     2   12    2 1  
     3   13    3 1  
     4   14    4 1  
     5   15    5 1  
     6   15    6 1  
     7   16    7 1  
     8   17    8 1  
     9   18    9 1  
    10   19   10 1  
    11   11   12 1  
    12   11   16 1  
    13   11   20 1  
    14   12   13 1  
    15   12   17 1  
    16   13   14 1  
    17   13   18 1  
    18   14   15 1  
    19   14   19 1  
    20   15   20 1  
@<TRIPOS>SUBSTRUCTURE
     1 SUB1        1 GROUP

