### Name: 6apr_ligand
### Creating user name: arthur
### Creation time: Tue Nov 27 11:30:27 2001


@<TRIPOS>MOLECULE
6apr_ligand
  110   109     1     0     0
SMALL
USER_CHARGES


@<TRIPOS>ATOM
      1 O1         52.1939   64.0107  103.4933 O.co2     1 SUB1       -0.500
      2 H          38.4754   69.1197  101.5548 H         1 SUB1        0.000
      3 HA         40.7501   69.2236  103.5612 H         1 SUB1        0.000
      4 HB         38.0757   68.6425  103.9710 H         1 SUB1        0.000
      5 HG13       38.2084   66.4113  103.1082 H         1 SUB1        0.000
      6 HG12       38.0292   66.3834  104.8953 H         1 SUB1        0.000
      7 HG11       39.6293   66.0553  104.1479 H         1 SUB1        0.000
      8 HG23       40.5386   68.0705  105.6591 H         1 SUB1        0.000
      9 HG22       38.8494   68.1261  106.2674 H         1 SUB1        0.000
     10 HG21       39.6034   69.6018  105.5743 H         1 SUB1        0.000
     11 H          42.3626   67.7376  103.1274 H         1 SUB1        0.000
     12 HA         41.8682   65.6899  101.0872 H         1 SUB1        0.000
     13 HB         42.3355   66.7188   99.3499 H         1 SUB1        0.000
     14 HG13       42.1941   68.9636  100.1177 H         1 SUB1        0.000
     15 HG12       43.5678   68.8043   98.9714 H         1 SUB1        0.000
     16 HG11       43.8794   68.9116  100.7372 H         1 SUB1        0.000
     17 HG23       45.2103   66.6057  100.2925 H         1 SUB1        0.000
     18 HG22       44.6749   66.8967   98.6028 H         1 SUB1        0.000
     19 HG21       44.2869   65.3409   99.4124 H         1 SUB1        0.000
     20 H          46.6736   60.6402  102.8530 H         1 SUB1        0.000
     21 HA         48.8997   62.3481  103.6274 H         1 SUB1        0.000
     22 HB3        48.7037   59.3244  103.4960 H         1 SUB1        0.000
     23 HB2        48.4388   60.3626  104.9377 H         1 SUB1        0.000
     24 HB1        50.0664   60.2719  104.1831 H         1 SUB1        0.000
     25 H1         39.2764   72.3532  100.6166 H         1 SUB1        0.000
     26 H2         38.6082   70.7676  100.1007 H         1 SUB1        0.000
     27 H3         36.5660   71.2366  100.9960 H         1 SUB1        0.000
     28 H4         36.0051   73.2390   99.5843 H         1 SUB1        0.000
     29 H5         37.1152   72.0943   98.7574 H         1 SUB1        0.000
     30 H6         37.7575   73.6152   99.4652 H         1 SUB1        0.000
     31 H7         37.0946   72.5281  103.0203 H         1 SUB1        0.000
     32 H8         35.8677   73.3284  101.9807 H         1 SUB1        0.000
     33 H9         37.5622   73.9246  101.9918 H         1 SUB1        0.000
     34 H10        42.2016   64.2854  102.2714 H         1 SUB1        0.000
     35 H11        44.6734   63.8851  103.8726 H         1 SUB1        0.000
     36 H12        43.3537   62.6590  105.4123 H         1 SUB1        0.000
     37 H13        41.9505   62.6206  104.2915 H         1 SUB1        0.000
     38 H14        41.8665   65.1769  104.5112 H         1 SUB1        0.000
     39 H15        40.6750   65.0442  106.7130 H         1 SUB1        0.000
     40 H16        41.4420   63.4503  107.0260 H         1 SUB1        0.000
     41 H17        40.2817   63.6374  105.6676 H         1 SUB1        0.000
     42 H18        44.1713   65.5032  105.4026 H         1 SUB1        0.000
     43 H19        43.7286   64.5864  106.8825 H         1 SUB1        0.000
     44 H20        42.9363   66.1594  106.5299 H         1 SUB1        0.000
     45 H21        44.4224   61.4877  103.3796 H         1 SUB1        0.000
     46 H22        43.1233   60.9400  101.5252 H         1 SUB1        0.000
     47 H23        45.0210   63.1144  100.9249 H         1 SUB1        0.000
     48 H24        45.2831   61.3458  101.0978 H         1 SUB1        0.000
     49 H25        49.0029   63.3643  101.7297 H         1 SUB1        0.000
     50 H26        50.3293   62.0500   99.4011 H         1 SUB1        0.000
     51 H27        50.0514   64.3024   98.3934 H         1 SUB1        0.000
     52 H28        48.8811   64.5995   99.7234 H         1 SUB1        0.000
     53 H29        48.5100   63.5196   97.1125 H         1 SUB1        0.000
     54 H30        46.7940   61.8189   97.6468 H         1 SUB1        0.000
     55 H31        47.2218   61.9027   99.3894 H         1 SUB1        0.000
     56 H32        48.4057   61.2546   98.2039 H         1 SUB1        0.000
     57 H33        47.2836   65.4097   98.3306 H         1 SUB1        0.000
     58 H34        46.6252   64.2038   99.4877 H         1 SUB1        0.000
     59 H35        46.1483   64.1414   97.7570 H         1 SUB1        0.000
     60 H36        51.8632   62.7591  101.1914 H         1 SUB1        0.000
     61 H37        53.2178   63.8860   99.6766 H         1 SUB1        0.000
     62 H38        50.4481   64.8728  101.8240 H         1 SUB1        0.000
     63 H39        51.6526   65.6533  100.7439 H         1 SUB1        0.000
     64 CA         38.6450   71.5040  100.9170 C.3       1 SUB1        0.000
     65 CB         37.2650   72.0830  100.9250 C.3       1 SUB1        0.000
     66 CG1        37.0180   72.8100   99.5870 C.3       1 SUB1        0.000
     67 CG2        36.9240   73.0310  102.0570 C.3       1 SUB1        0.000
     68 C          39.4620   70.8180  101.9670 C.2       1 SUB1        0.000
     69 O          40.3590   71.3930  102.6390 O.2       1 SUB1        0.000
     70 N          39.2070   69.5250  102.1030 N.am      1 SUB1        0.000
     71 CA         39.9690   68.6480  103.0430 C.3       1 SUB1        0.000
     72 C          40.6500   67.6930  102.0640 C.2       1 SUB1        0.000
     73 O          40.0140   67.3510  101.0410 O.2       1 SUB1        0.000
     74 CB         39.0310   68.1180  104.1200 C.3       1 SUB1        0.000
     75 CG1        38.7020   66.6410  104.0640 C.3       1 SUB1        0.000
     76 CG2        39.5410   68.5060  105.5010 C.3       1 SUB1        0.000
     77 N          41.8990   67.3660  102.3230 N.am      1 SUB1        0.000
     78 CA         42.6160   66.4330  101.4010 C.3       1 SUB1        0.000
     79 C          43.6010   65.6680  102.2770 C.2       1 SUB1        0.000
     80 O          44.6980   66.1270  102.5800 O.2       1 SUB1        0.000
     81 CB         43.1070   67.0170  100.0750 C.3       1 SUB1        0.000
     82 CG1        43.1930   68.5280   99.9680 C.3       1 SUB1        0.000
     83 CG2        44.4100   66.4240   99.5600 C.3       1 SUB1        0.000
     84 N          43.1110   64.5030  102.6260 N.am      1 SUB1        0.000
     85 CA         43.7320   63.4820  103.4710 C.3       1 SUB1        0.000
     86 CB         42.7990   63.2230  104.6480 C.3       1 SUB1        0.000
     87 CG         42.2430   64.5090  105.3000 C.3       1 SUB1        0.000
     88 CD1        41.0760   64.1330  106.2450 C.3       1 SUB1        0.000
     89 CD2        43.3490   65.2420  106.0850 C.3       1 SUB1        0.000
     90 CH         44.0900   62.2320  102.6410 C.3       1 SUB1        0.000
     91 OH         42.9050   61.7100  102.0370 O.3       1 SUB1        0.000
     92 CM         45.2090   62.3000  101.6400 C.3       1 SUB1        0.000
     93 C          46.5140   62.5680  102.4030 C.2       1 SUB1        0.000
     94 O          46.8060   63.7310  102.5660 O.2       1 SUB1        0.000
     95 N          47.1900   61.4930  102.7750 N.am      1 SUB1        0.000
     96 CA         48.6310   61.4290  103.0860 C.3       1 SUB1        0.000
     97 C          49.4080   61.4180  101.7700 C.2       1 SUB1        0.000
     98 O          49.8910   60.4230  101.2350 O.2       1 SUB1        0.000
     99 CB         48.9840   60.2680  103.9870 C.3       1 SUB1        0.000
    100 N          49.4570   62.6240  101.2340 N.am      1 SUB1        0.000
    101 CA         50.1240   62.9700   99.9680 C.3       1 SUB1        0.000
    102 CB         49.3160   63.8340   99.0640 C.3       1 SUB1        0.000
    103 CG         48.1780   63.4160   98.1560 C.3       1 SUB1        0.000
    104 CD1        47.6090   61.9960   98.3640 C.3       1 SUB1        0.000
    105 CD2        46.9690   64.3630   98.4550 C.3       1 SUB1        0.000
    106 CH         51.4780   63.5320  100.5100 C.3       1 SUB1        0.000
    107 OH         52.3740   63.5500   99.3980 O.3       1 SUB1        0.000
    108 CM         51.4450   64.7730  101.3700 C.3       1 SUB1        0.000
    109 C          52.4890   64.6840  102.4700 C.2       1 SUB1        0.000
    110 O          53.5890   65.2100  102.4450 O.co2     1 SUB1       -0.500
@<TRIPOS>BOND
     1  100   97 am 
     2  109    1 ar 
     3   70    2 1  
     4   71    3 1  
     5   74    4 1  
     6   75    5 1  
     7   75    6 1  
     8   75    7 1  
     9   76    8 1  
    10   76    9 1  
    11   76   10 1  
    12   77   11 1  
    13   78   12 1  
    14   81   13 1  
    15   82   14 1  
    16   82   15 1  
    17   82   16 1  
    18   83   17 1  
    19   83   18 1  
    20   83   19 1  
    21   95   20 1  
    22   96   21 1  
    23   99   22 1  
    24   99   23 1  
    25   99   24 1  
    26   64   25 1  
    27   64   26 1  
    28   65   27 1  
    29   66   28 1  
    30   66   29 1  
    31   66   30 1  
    32   67   31 1  
    33   67   32 1  
    34   67   33 1  
    35   84   34 1  
    36   85   35 1  
    37   86   36 1  
    38   86   37 1  
    39   87   38 1  
    40   88   39 1  
    41   88   40 1  
    42   88   41 1  
    43   89   42 1  
    44   89   43 1  
    45   89   44 1  
    46   90   45 1  
    47   91   46 1  
    48   92   47 1  
    49   92   48 1  
    50  100   49 1  
    51  101   50 1  
    52  102   51 1  
    53  102   52 1  
    54  103   53 1  
    55  104   54 1  
    56  104   55 1  
    57  104   56 1  
    58  105   57 1  
    59  105   58 1  
    60  105   59 1  
    61  106   60 1  
    62  107   61 1  
    63  108   62 1  
    64  108   63 1  
    65   71   70 1  
    66   71   74 1  
    67   71   72 1  
    68   72   73 2  
    69   74   76 1  
    70   74   75 1  
    71   78   77 1  
    72   78   81 1  
    73   78   79 1  
    74   79   80 2  
    75   81   83 1  
    76   81   82 1  
    77   77   72 am 
    78   96   95 1  
    79   96   99 1  
    80   96   97 1  
    81   97   98 2  
    82   64   65 1  
    83   64   68 1  
    84   65   66 1  
    85   65   67 1  
    86   68   69 2  
    87   70   68 am 
    88   84   79 am 
    89   84   85 1  
    90   85   86 1  
    91   85   90 1  
    92   86   87 1  
    93   87   88 1  
    94   87   89 1  
    95   90   91 1  
    96   90   92 1  
    97   92   93 1  
    98   93   94 2  
    99   95   93 am 
   100  100  101 1  
   101  101  102 1  
   102  101  106 1  
   103  102  103 1  
   104  103  104 1  
   105  103  105 1  
   106  106  107 1  
   107  106  108 1  
   108  108  109 1  
   109  109  110 ar 
@<TRIPOS>SUBSTRUCTURE
     1 SUB1        1 GROUP

