### Name: 7acn_ligand
### Creating user name: arthur
### Creation time: Tue Nov 27 11:30:27 2001


@<TRIPOS>MOLECULE
7acn_ligand
   18    17     1     0     0
SMALL
USER_CHARGES


@<TRIPOS>ATOM
      1 H1         37.2706   34.2816   70.4444 H         1 SUB1        0.000
      2 H2         36.4069   32.3934   69.4366 H         1 SUB1        0.000
      3 H3         35.6841   35.4615   71.8934 H         1 SUB1        0.000
      4 H4         37.1258   33.1135   73.0037 H         1 SUB1        0.000
      5 H5         36.4215   34.4429   73.9852 H         1 SUB1        0.000
      6 C1         35.3810   34.8400   69.6640 C.2       1 SUB1        0.000
      7 O1         35.2670   36.1000   69.8590 O.co2     1 SUB1       -0.500
      8 O2         34.7590   34.2530   68.7510 O.co2     1 SUB1       -0.500
      9 C2         36.2150   33.9990   70.5700 C.3       1 SUB1        0.000
     10 O7         36.1150   32.5810   70.3210 O.3       1 SUB1        0.000
     11 C3         35.7620   34.3670   71.9710 C.3       1 SUB1        0.000
     12 C4         36.8410   34.1760   73.0040 C.3       1 SUB1        0.000
     13 C5         38.0970   34.9950   72.7960 C.2       1 SUB1        0.000
     14 O3         39.1230   34.3110   72.9600 O.co2     1 SUB1       -0.500
     15 O4         38.1210   36.2140   72.4850 O.co2     1 SUB1       -0.500
     16 C6         34.3780   34.0050   72.4790 C.2       1 SUB1        0.000
     17 O5         33.4520   33.9460   71.7190 O.co2     1 SUB1       -0.500
     18 O6         34.0850   33.8770   73.6670 O.co2     1 SUB1       -0.500
@<TRIPOS>BOND
     1    9    1 1  
     2   10    2 1  
     3   11    3 1  
     4   12    4 1  
     5   12    5 1  
     6    6    7 ar 
     7    6    8 ar 
     8    6    9 1  
     9    9   10 1  
    10    9   11 1  
    11   11   12 1  
    12   11   16 1  
    13   12   13 1  
    14   13   14 ar 
    15   13   15 ar 
    16   16   17 ar 
    17   16   18 ar 
@<TRIPOS>SUBSTRUCTURE
     1 SUB1        1 GROUP

