### Name: 7cat_ligand
### Creating user name: arthur
### Creation time: Tue Nov 27 11:30:27 2001


@<TRIPOS>MOLECULE
7cat_ligand
   74    78     1     0     0
SMALL
USER_CHARGES


@<TRIPOS>ATOM
      1 H1         30.8988   10.3282   34.6791 H         1 SUB1        0.000
      2 H2         31.7013    9.4281   33.3478 H         1 SUB1        0.000
      3 H3         30.0264   10.0251   31.7604 H         1 SUB1        0.000
      4 H4         29.9390   12.4477   33.3359 H         1 SUB1        0.000
      5 H5         28.8607   13.2939   31.5431 H         1 SUB1        0.000
      6 H6         27.9858   11.9756   34.5204 H         1 SUB1        0.000
      7 H7         27.1180   10.2487   32.1763 H         1 SUB1        0.000
      8 H8         26.9266   10.1925   36.0441 H         1 SUB1        0.000
      9 H9         23.0963    5.3492   35.1747 H         1 SUB1        0.000
     10 H10        23.8336    6.4133   36.4023 H         1 SUB1        0.000
     11 H11        24.6845    6.6784   31.1640 H         1 SUB1        0.000
     12 H12        33.9294    7.5827   33.3580 H         1 SUB1        0.000
     13 H13        34.7874    6.6290   32.1006 H         1 SUB1        0.000
     14 H14        32.6804    5.5245   33.0052 H         1 SUB1        0.000
     15 H15        33.0461    6.1335   30.0177 H         1 SUB1        0.000
     16 H16        33.0378    3.8207   30.1548 H         1 SUB1        0.000
     17 H17        30.8336    5.7087   29.5456 H         1 SUB1        0.000
     18 H18        29.5317    4.3081   30.7788 H         1 SUB1        0.000
     19 H19        29.6307    6.3124   32.0220 H         1 SUB1        0.000
     20 H20        31.9627    7.9375   29.6928 H         1 SUB1        0.000
     21 H21        33.4165    9.9958   27.2069 H         1 SUB1        0.000
     22 H22        33.0520    8.9303   28.5229 H         1 SUB1        0.000
     23 H23        28.7979    9.7143   27.9255 H         1 SUB1        0.000
     24 H24        29.3146   10.9566   29.1156 H         1 SUB1        0.000
     25 H25        27.4234    9.7200   29.9453 H         1 SUB1        0.000
     26 H26        28.0190    7.8838   31.4501 H         1 SUB1        0.000
     27 AP         33.4390   11.6300   33.4680 P.3       1 SUB1        0.000
     28 AO1        33.4890   11.5780   34.9710 O.co2     1 SUB1       -0.500
     29 AO2        34.0900   12.7980   32.9090 O.co2     1 SUB1       -0.500
     30 AO5'       31.8280   11.5860   33.1770 O.3       1 SUB1        0.000
     31 AC5'       31.1120   10.3220   33.6000 C.3       1 SUB1        0.000
     32 AC4'       29.8190   10.3820   32.7800 C.3       1 SUB1        0.000
     33 AO4'       28.7850    9.5870   33.3740 O.3       1 SUB1        0.000
     34 AC3'       29.2710   11.8140   32.7340 C.3       1 SUB1        0.000
     35 AO3'       29.2120   12.4150   31.4620 O.3       1 SUB1        0.000
     36 AC2'       27.9190   11.7310   33.4500 C.3       1 SUB1        0.000
     37 AO2'       27.0040   12.6250   32.7490 O.3       1 SUB1        0.000
     38 AC1'       27.4930   10.3030   33.2090 C.3       1 SUB1        0.000
     39 AN9        26.5880    9.5190   34.0230 N.pl3     1 SUB1        0.000
     40 AC8        26.4250    9.4930   35.3770 C.2       1 SUB1        0.000
     41 AN7        25.6090    8.5500   35.8130 N.2       1 SUB1        0.000
     42 AC5        25.2590    7.8660   34.6780 C.2       1 SUB1        0.000
     43 AC6        24.3780    6.7790   34.4620 C.2       1 SUB1        0.000
     44 AN6        23.7200    6.1320   35.4180 N.pl3     1 SUB1        0.000
     45 AN1        24.2070    6.3760   33.1780 N.2       1 SUB1        0.000
     46 AC2        24.8660    7.0430   32.1740 C.2       1 SUB1        0.000
     47 AN3        25.6830    8.0590   32.2740 N.2       1 SUB1        0.000
     48 AC4        25.8580    8.4240   33.5690 C.2       1 SUB1        0.000
     49 O3         33.8510   10.2700   32.7810 O.3       1 SUB1        0.000
     50 NP         34.6790    9.6100   31.6820 P.3       1 SUB1        0.000
     51 NO1        35.9640    9.0430   32.2440 O.co2     1 SUB1       -0.500
     52 NO2        34.9350   10.3280   30.4450 O.co2     1 SUB1       -0.500
     53 NO5'       33.7060    8.2860   31.3890 O.3       1 SUB1        0.000
     54 NC5'       33.8690    7.1880   32.3330 C.3       1 SUB1        0.000
     55 NC4'       32.6660    6.2770   32.2030 C.3       1 SUB1        0.000
     56 NO4'       31.4990    7.1340   32.2910 O.3       1 SUB1        0.000
     57 NC3'       32.5400    5.5810   30.8230 C.3       1 SUB1        0.000
     58 NO3'       33.0920    4.2900   30.9790 O.3       1 SUB1        0.000
     59 NC2'       31.0450    5.5230   30.6090 C.3       1 SUB1        0.000
     60 NO2'       30.4680    4.2750   30.9360 O.3       1 SUB1        0.000
     61 NC1'       30.4840    6.6750   31.4300 C.3       1 SUB1        0.000
     62 NN1        30.0420    7.7800   30.5930 N.pl3     1 SUB1        0.000
     63 NC2        30.9430    8.3180   29.7290 C.2       1 SUB1        0.000
     64 NC3        30.5560    9.3510   28.8970 C.2       1 SUB1        0.000
     65 NC7        31.4700   10.0260   27.8320 C.2       1 SUB1        0.000
     66 NO7        31.0710   10.8510   27.0020 O.2       1 SUB1        0.000
     67 NN7        32.7580    9.6150   27.8560 N.am      1 SUB1        0.000
     68 NC4        29.2500    9.8770   28.9150 C.3       1 SUB1        0.000
     69 NC5        28.4280    9.3070   29.8670 C.2       1 SUB1        0.000
     70 NC6        28.7310    8.2790   30.7270 C.2       1 SUB1        0.000
     71 AP2'       26.1240   13.7950   33.5480 P.3       1 SUB1        0.000
     72 AOP1       26.9790   14.1030   34.7320 O.co2     1 SUB1       -0.500
     73 AOP2       24.6950   13.7210   34.0290 O.co2     1 SUB1       -0.500
     74 AOP3       26.2920   14.7030   32.3660 O.co2     1 SUB1       -0.500
@<TRIPOS>BOND
     1   31    1 1  
     2   31    2 1  
     3   32    3 1  
     4   34    4 1  
     5   35    5 1  
     6   36    6 1  
     7   38    7 1  
     8   40    8 1  
     9   44    9 1  
    10   44   10 1  
    11   46   11 1  
    12   54   12 1  
    13   54   13 1  
    14   55   14 1  
    15   57   15 1  
    16   58   16 1  
    17   59   17 1  
    18   60   18 1  
    19   61   19 1  
    20   63   20 1  
    21   67   21 1  
    22   67   22 1  
    23   68   23 1  
    24   68   24 1  
    25   69   25 1  
    26   70   26 1  
    27   27   28 ar 
    28   27   29 ar 
    29   27   30 1  
    30   27   49 1  
    31   30   31 1  
    32   31   32 1  
    33   32   33 1  
    34   32   34 1  
    35   33   38 1  
    36   34   35 1  
    37   34   36 1  
    38   36   37 1  
    39   36   38 1  
    40   37   71 1  
    41   38   39 1  
    42   39   40 1  
    43   39   48 1  
    44   40   41 2  
    45   41   42 1  
    46   42   43 1  
    47   42   48 2  
    48   43   44 1  
    49   43   45 2  
    50   45   46 1  
    51   46   47 2  
    52   47   48 1  
    53   49   50 1  
    54   50   51 ar 
    55   50   52 ar 
    56   50   53 1  
    57   53   54 1  
    58   54   55 1  
    59   55   56 1  
    60   55   57 1  
    61   56   61 1  
    62   57   58 1  
    63   57   59 1  
    64   59   60 1  
    65   59   61 1  
    66   61   62 1  
    67   62   63 1  
    68   62   70 1  
    69   63   64 2  
    70   64   65 1  
    71   64   68 1  
    72   65   66 2  
    73   65   67 am 
    74   68   69 1  
    75   69   70 2  
    76   71   72 ar 
    77   71   73 ar 
    78   71   74 ar 
@<TRIPOS>SUBSTRUCTURE
     1 SUB1        1 GROUP

