### Name: 7est_ligand
### Creating user name: arthur
### Creation time: Tue Nov 27 11:30:27 2001


@<TRIPOS>MOLECULE
7est_ligand
   51    51     1     0     0
SMALL
USER_CHARGES


@<TRIPOS>ATOM
      1 H          11.3507   50.8933   -1.7096 H         1 SUB1        0.000
      2 HA         11.2048   49.5825    0.9309 H         1 SUB1        0.000
      3 HB2        11.7404   48.6391   -1.9004 H         1 SUB1        0.000
      4 HB1        10.1015   48.9929   -1.2557 H         1 SUB1        0.000
      5 HG         10.2016   46.7658   -1.6440 H         1 SUB1        0.000
      6 HD13       12.5494   46.3795   -1.9146 H         1 SUB1        0.000
      7 HD12       11.8636   45.1927   -0.7537 H         1 SUB1        0.000
      8 HD11       12.8278   46.5835   -0.1517 H         1 SUB1        0.000
      9 HD23       10.6657   47.1412    1.3199 H         1 SUB1        0.000
     10 HD22        9.9319   45.6987    0.5406 H         1 SUB1        0.000
     11 HD21        9.1150   47.2943    0.4263 H         1 SUB1        0.000
     12 H          13.1412   48.7661    2.0188 H         1 SUB1        0.000
     13 HA         15.7217   49.5010    0.8939 H         1 SUB1        0.000
     14 HB3        15.0535   47.7271    3.2953 H         1 SUB1        0.000
     15 HB2        15.4105   49.4870    3.3399 H         1 SUB1        0.000
     16 HB1        16.6882   48.3236    2.8495 H         1 SUB1        0.000
     17 H1         16.5264   48.5870   -0.6735 H         1 SUB1        0.000
     18 H2         15.0354   45.2395   -0.8816 H         1 SUB1        0.000
     19 H3         15.6840   43.6870   -2.6821 H         1 SUB1        0.000
     20 H4         18.6928   46.4171   -4.0027 H         1 SUB1        0.000
     21 H5         18.0101   48.0044   -2.2360 H         1 SUB1        0.000
     22 C          11.3220   52.0910   -0.1060 C.2       1 SUB1        0.000
     23 O          11.5020   52.2080    1.1130 O.2       1 SUB1        0.000
     24 CT         11.0210   53.2990   -0.9960 C.3       1 SUB1        0.000
     25 F1         12.1200   54.0630   -1.1070 F         1 SUB1        0.000
     26 F2         10.6620   52.9380   -2.2440 F         1 SUB1        0.000
     27 F3          9.9630   54.0510   -0.6230 F         1 SUB1        0.000
     28 N          11.4430   50.9070   -0.7140 N.am      1 SUB1        0.000
     29 CA         11.6980   49.6330   -0.0510 C.3       1 SUB1        0.000
     30 C          13.2150   49.4870    0.1250 C.2       1 SUB1        0.000
     31 O          13.9520   49.9040   -0.7710 O.2       1 SUB1        0.000
     32 CB         11.0950   48.5890   -1.0110 C.3       1 SUB1        0.000
     33 CG         10.8480   47.0820   -0.8120 C.3       1 SUB1        0.000
     34 CD1        12.1080   46.2530   -0.9150 C.3       1 SUB1        0.000
     35 CD2        10.0890   46.7840    0.4540 C.3       1 SUB1        0.000
     36 N          13.7410   48.9620    1.2430 N.am      1 SUB1        0.000
     37 CA         15.1670   48.6700    1.3540 C.3       1 SUB1        0.000
     38 C          15.5170   47.3760    0.6080 C.2       1 SUB1        0.000
     39 O          15.2300   46.2440    1.0590 O.2       1 SUB1        0.000
     40 CB         15.6110   48.5430    2.8120 C.3       1 SUB1        0.000
     41 N          16.2080   47.6510   -0.5230 N.am      1 SUB1        0.000
     42 C1         16.4890   46.7060   -1.4670 C.ar      1 SUB1        0.000
     43 C2         15.8310   45.4980   -1.5710 C.ar      1 SUB1        0.000
     44 C3         16.2060   44.6300   -2.5670 C.ar      1 SUB1        0.000
     45 C4         17.2440   44.9480   -3.4250 C.ar      1 SUB1        0.000
     46 C5         17.8920   46.1620   -3.3180 C.ar      1 SUB1        0.000
     47 C6         17.5110   47.0470   -2.3320 C.ar      1 SUB1        0.000
     48 C7         17.6070   43.9260   -4.4830 C.3       1 SUB1        0.000
     49 F1         17.5850   42.7110   -3.9090 F         1 SUB1        0.000
     50 F2         18.8270   44.0840   -5.0420 F         1 SUB1        0.000
     51 F3         16.6820   43.9680   -5.4670 F         1 SUB1        0.000
@<TRIPOS>BOND
     1   22   28 am 
     2   38   41 am 
     3   28    1 1  
     4   29    2 1  
     5   32    3 1  
     6   32    4 1  
     7   33    5 1  
     8   34    6 1  
     9   34    7 1  
    10   34    8 1  
    11   35    9 1  
    12   35   10 1  
    13   35   11 1  
    14   36   12 1  
    15   37   13 1  
    16   40   14 1  
    17   40   15 1  
    18   40   16 1  
    19   41   17 1  
    20   43   18 1  
    21   44   19 1  
    22   46   20 1  
    23   47   21 1  
    24   29   28 1  
    25   29   32 1  
    26   29   30 1  
    27   30   31 2  
    28   32   33 1  
    29   33   34 1  
    30   33   35 1  
    31   37   36 1  
    32   37   40 1  
    33   37   38 1  
    34   38   39 2  
    35   30   36 am 
    36   22   23 2  
    37   22   24 1  
    38   24   25 1  
    39   24   26 1  
    40   24   27 1  
    41   41   42 1  
    42   42   43 ar 
    43   42   47 ar 
    44   43   44 ar 
    45   44   45 ar 
    46   45   46 ar 
    47   45   48 1  
    48   46   47 ar 
    49   48   49 1  
    50   48   50 1  
    51   48   51 1  
@<TRIPOS>SUBSTRUCTURE
     1 SUB1        1 GROUP

