### Name: 8acn_ligand
### Creating user name: arthur
### Creation time: Tue Nov 27 11:30:28 2001


@<TRIPOS>MOLECULE
8acn_ligand
   18    17     1     0     0
SMALL
USER_CHARGES


@<TRIPOS>ATOM
      1 H1         37.2936   34.3703   70.9196 H         1 SUB1        0.000
      2 H2         36.7718   32.4739   69.7465 H         1 SUB1        0.000
      3 H3         36.9429   32.8938   73.6287 H         1 SUB1        0.000
      4 H4         36.1354   34.2350   74.5096 H         1 SUB1        0.000
      5 C1         35.4250   34.7760   69.9560 C.2       1 SUB1        0.000
      6 O1         35.3280   36.0110   70.0430 O.co2     1 SUB1       -0.500
      7 O2         34.8870   34.1870   69.0170 O.co2     1 SUB1       -0.500
      8 C2         36.2810   33.9420   70.9550 C.3       1 SUB1        0.000
      9 C3         35.7450   34.1780   72.4070 C.3       1 SUB1        0.000
     10 O7         36.4460   32.5570   70.6350 O.3       1 SUB1        0.000
     11 C4         36.6340   33.9480   73.5720 C.3       1 SUB1        0.000
     12 C5         37.8090   34.8360   73.2970 C.2       1 SUB1        0.000
     13 O3         37.8770   36.0730   73.0770 O.co2     1 SUB1       -0.500
     14 O4         38.8830   34.2060   73.3250 O.co2     1 SUB1       -0.500
     15 N          34.3000   33.9290   72.6530 N.2       1 SUB1        0.000
     16 O5         33.4330   33.9580   71.7680 O.2       1 SUB1        0.000
     17 O6         33.8590   33.6510   73.7490 O.2       1 SUB1        0.000
     18 H5         35.7428   35.2780   72.4055 H         1 SUB1        0.000
@<TRIPOS>BOND
     1    8    1 1  
     2   10    2 1  
     3   11    3 1  
     4   11    4 1  
     5    5    6 ar 
     6    5    7 ar 
     7    5    8 1  
     8    8    9 1  
     9    8   10 1  
    10    9   11 1  
    11    9   15 1  
    12   11   12 1  
    13   12   13 ar 
    14   12   14 ar 
    15   15   16 2  
    16   15   17 2  
    17    9   18 1  
@<TRIPOS>SUBSTRUCTURE
     1 SUB1        1 GROUP

