### Name: 8atc_ligand
### Creating user name: arthur
### Creation time: Tue Nov 27 11:30:28 2001


@<TRIPOS>MOLECULE
8atc_ligand
   22    21     1     0     0
SMALL
USER_CHARGES


@<TRIPOS>ATOM
      1 H1         70.1812   51.3457   63.9066 H         1 SUB1        0.000
      2 H2         69.5083   51.3503   65.5721 H         1 SUB1        0.000
      3 H3         69.3314   52.7005   62.4695 H         1 SUB1        0.000
      4 H4         68.0282   55.0263   63.3647 H         1 SUB1        0.000
      5 H5         69.9815   55.2275   61.9317 H         1 SUB1        0.000
      6 H6         68.5436   55.8301   61.0396 H         1 SUB1        0.000
      7 P          68.4100   49.7510   64.1640 P.3       1 SUB1        0.000
      8 O1P        67.8750   49.7140   62.7830 O.co2     1 SUB1       -0.500
      9 O2P        69.2610   48.6080   64.4780 O.co2     1 SUB1       -0.500
     10 O3P        67.2330   49.6840   65.2410 O.co2     1 SUB1       -0.500
     11 C1P        69.2570   51.3090   64.5020 C.3       1 SUB1        0.000
     12 C1         68.4210   52.4910   64.1610 C.2       1 SUB1        0.000
     13 O1         67.3560   52.6890   64.8280 O.2       1 SUB1        0.000
     14 N2         68.6460   53.1320   63.0560 N.am      1 SUB1        0.000
     15 C2         68.1090   54.3180   62.5270 C.3       1 SUB1        0.000
     16 C4         66.7570   54.2120   61.8890 C.2       1 SUB1        0.000
     17 O2         66.1700   53.1060   61.9070 O.co2     1 SUB1       -0.500
     18 O3         66.1400   55.2610   61.6960 O.co2     1 SUB1       -0.500
     19 C3         69.0420   54.9350   61.4400 C.3       1 SUB1        0.000
     20 C5         69.3910   54.0460   60.2770 C.2       1 SUB1        0.000
     21 O4         70.3290   54.4860   59.5300 O.co2     1 SUB1       -0.500
     22 O5         68.5000   53.1830   59.9610 O.co2     1 SUB1       -0.500
@<TRIPOS>BOND
     1   11    1 1  
     2   11    2 1  
     3   14    3 1  
     4   15    4 1  
     5   19    5 1  
     6   19    6 1  
     7    7    8 ar 
     8    7    9 ar 
     9    7   10 ar 
    10    7   11 1  
    11   11   12 1  
    12   12   13 2  
    13   12   14 am 
    14   14   15 1  
    15   15   16 1  
    16   15   19 1  
    17   16   17 ar 
    18   16   18 ar 
    19   19   20 1  
    20   20   21 ar 
    21   20   22 ar 
@<TRIPOS>SUBSTRUCTURE
     1 SUB1        1 GROUP

