### Name: 8cpa_ligand
### Creating user name: arthur
### Creation time: Tue Nov 27 11:30:28 2001


@<TRIPOS>MOLECULE
8cpa_ligand
   55    56     1     0     0
SMALL
USER_CHARGES


@<TRIPOS>ATOM
      1 H1         47.1871   18.3856   42.8943 H         1 SUB1        0.000
      2 H2         48.6548   17.6552   42.1600 H         1 SUB1        0.000
      3 H3         47.1927   20.5474   43.4826 H         1 SUB1        0.000
      4 H4         50.0186   19.1260   40.7019 H         1 SUB1        0.000
      5 H5         48.3002   22.7142   43.5052 H         1 SUB1        0.000
      6 H6         51.1201   21.2913   40.7186 H         1 SUB1        0.000
      7 H7         50.2542   23.0954   42.0998 H         1 SUB1        0.000
      8 H8         46.8318   18.5983   38.2828 H         1 SUB1        0.000
      9 H9         45.9711   16.8555   36.7009 H         1 SUB1        0.000
     10 H10        45.2824   18.4881   36.4063 H         1 SUB1        0.000
     11 H11        44.3006   17.2363   37.2404 H         1 SUB1        0.000
     12 H12        43.8287   21.1726   39.8135 H         1 SUB1        0.000
     13 H13        45.3270   22.1633   39.8263 H         1 SUB1        0.000
     14 H14        43.9702   24.1978   35.7705 H         1 SUB1        0.000
     15 H15        46.7187   23.3629   34.6938 H         1 SUB1        0.000
     16 H16        46.4479   24.9055   35.5734 H         1 SUB1        0.000
     17 H17        44.8564   26.5183   34.5776 H         1 SUB1        0.000
     18 H18        46.4599   23.2260   32.4984 H         1 SUB1        0.000
     19 H19        44.4037   27.6425   32.4686 H         1 SUB1        0.000
     20 H20        45.9755   24.3253   30.3910 H         1 SUB1        0.000
     21 H21        44.9253   26.5220   30.3574 H         1 SUB1        0.000
     22 H22        45.8323   16.1135   39.0390 H         1 SUB1        0.000
     23 H23        46.3034   20.5845   38.3952 H         1 SUB1        0.000
     24 C1         46.7100   17.1130   40.5290 C.2       1 SUB1        0.000
     25 CB1        47.9000   18.4490   42.0590 C.3       1 SUB1        0.000
     26 CG1        48.5500   19.7190   42.0950 C.ar      1 SUB1        0.000
     27 CD11       48.0700   20.7140   42.8680 C.ar      1 SUB1        0.000
     28 CD12       49.6350   19.9250   41.3260 C.ar      1 SUB1        0.000
     29 CE11       48.6810   21.9170   42.8770 C.ar      1 SUB1        0.000
     30 CE12       50.2430   21.1270   41.3340 C.ar      1 SUB1        0.000
     31 CZ1        49.7670   22.1270   42.1030 C.ar      1 SUB1        0.000
     32 C2         44.9570   19.1400   38.9360 C.2       1 SUB1        0.000
     33 CA2        45.8600   18.1140   38.4590 C.3       1 SUB1        0.000
     34 CB2        45.3150   17.6400   37.1060 C.3       1 SUB1        0.000
     35 CA3        44.6690   21.5380   39.2050 C.3       1 SUB1        0.000
     36 C4         44.6070   22.3510   34.8640 C.2       1 SUB1        0.000
     37 CA4        44.8320   23.5220   35.6680 C.3       1 SUB1        0.000
     38 CB4        45.9910   24.1600   34.9060 C.3       1 SUB1        0.000
     39 CG4        45.7090   24.8210   33.6600 C.ar      1 SUB1        0.000
     40 CD41       45.1190   26.0360   33.6430 C.ar      1 SUB1        0.000
     41 CD42       46.0030   24.2090   32.4940 C.ar      1 SUB1        0.000
     42 CE41       44.8530   26.6560   32.4720 C.ar      1 SUB1        0.000
     43 CE42       45.7290   24.8190   31.3240 C.ar      1 SUB1        0.000
     44 CZ4        45.1500   26.0400   31.3020 C.ar      1 SUB1        0.000
     45 O1         46.7610   16.1530   41.2350 O.2       1 SUB1        0.000
     46 OA1        47.2090   18.2740   40.8520 O.3       1 SUB1        0.000
     47 O2         43.8560   18.9480   39.3440 O.2       1 SUB1        0.000
     48 OP31       42.8040   21.8510   37.3320 O.co2     1 SUB1       -0.500
     49 OP32       43.8180   23.8440   38.7850 O.co2     1 SUB1       -0.500
     50 OP33       45.2180   22.9160   36.9320 O.3       1 SUB1        0.000
     51 O41        45.2630   21.3640   34.9840 O.co2     1 SUB1       -0.500
     52 O42        43.6360   22.4110   33.9860 O.co2     1 SUB1       -0.500
     53 N2         46.1190   17.0230   39.3400 N.am      1 SUB1        0.000
     54 N3         45.4030   20.4330   38.8030 N.am      1 SUB1        0.000
     55 P3         44.0300   22.5200   38.0000 P.3       1 SUB1        0.000
@<TRIPOS>BOND
     1   25    1 1  
     2   25    2 1  
     3   27    3 1  
     4   28    4 1  
     5   29    5 1  
     6   30    6 1  
     7   31    7 1  
     8   33    8 1  
     9   34    9 1  
    10   34   10 1  
    11   34   11 1  
    12   35   12 1  
    13   35   13 1  
    14   37   14 1  
    15   38   15 1  
    16   38   16 1  
    17   40   17 1  
    18   41   18 1  
    19   42   19 1  
    20   43   20 1  
    21   44   21 1  
    22   53   22 1  
    23   54   23 1  
    24   24   45 2  
    25   24   46 1  
    26   24   53 am 
    27   25   26 1  
    28   46   25 1  
    29   26   27 ar 
    30   26   28 ar 
    31   27   29 ar 
    32   28   30 ar 
    33   29   31 ar 
    34   30   31 ar 
    35   33   32 1  
    36   33   34 1  
    37   53   33 1  
    38   37   36 1  
    39   37   38 1  
    40   38   39 1  
    41   39   40 ar 
    42   39   41 ar 
    43   40   42 ar 
    44   41   43 ar 
    45   42   44 ar 
    46   43   44 ar 
    47   55   50 1  
    48   55   49 ar 
    49   55   48 ar 
    50   35   55 1  
    51   54   35 1  
    52   32   54 am 
    53   36   52 ar 
    54   36   51 ar 
    55   50   37 1  
    56   32   47 2  
@<TRIPOS>SUBSTRUCTURE
     1 SUB1        1 GROUP

