### Name: 8hvp_ligand
### Creating user name: arthur
### Creation time: Tue Nov 27 11:30:28 2001


@<TRIPOS>MOLECULE
8hvp_ligand
  134   133     1     0     0
SMALL
USER_CHARGES


@<TRIPOS>ATOM
      1 H           0.3919    5.0659    3.2325 H         1 SUB1        0.000
      2 HA          2.9793    5.8799    2.6762 H         1 SUB1        0.000
      3 HB          1.6368    7.0319    0.8854 H         1 SUB1        0.000
      4 HG13       -0.1429    8.0894    2.0737 H         1 SUB1        0.000
      5 HG12        0.9177    9.3423    1.3445 H         1 SUB1        0.000
      6 HG11        1.0155    8.9962    3.1044 H         1 SUB1        0.000
      7 HG23        3.6576    8.5678    2.5367 H         1 SUB1        0.000
      8 HG22        3.1395    8.9828    0.8676 H         1 SUB1        0.000
      9 HG21        3.9751    7.4252    1.1875 H         1 SUB1        0.000
     10 H           0.7334    5.0026    4.5621 H         1 SUB1        0.000
     11 HA          1.5158    6.6842    6.9173 H         1 SUB1        0.000
     12 HB2        -0.8980    5.2376    5.9808 H         1 SUB1        0.000
     13 HB1        -0.7453    6.5540    7.1933 H         1 SUB1        0.000
     14 HG         -1.3766    4.5203    8.1501 H         1 SUB1        0.000
     15 H           3.1689    5.6579    8.3096 H         1 SUB1        0.000
     16 HA          3.4610    2.7283    7.9181 H         1 SUB1        0.000
     17 HB2         5.5226    4.0371    7.3980 H         1 SUB1        0.000
     18 HB1         5.7338    2.7968    8.6799 H         1 SUB1        0.000
     19 HG2         5.0798    4.7903   10.2283 H         1 SUB1        0.000
     20 HG1         5.6516    5.7624    8.8302 H         1 SUB1        0.000
     21 HE21        7.5345    2.9505    9.1045 H         1 SUB1        0.000
     22 HE22        8.8407    3.6486   10.0026 H         1 SUB1        0.000
     23 H           3.7955    1.3734    9.6427 H         1 SUB1        0.000
     24 HA          3.0929    2.1602   12.3637 H         1 SUB1        0.000
     25 HB2         1.5401    0.1294   12.4977 H         1 SUB1        0.000
     26 HB1         1.7926   -0.1456   10.7406 H         1 SUB1        0.000
     27 HD21        1.0764    2.2941   13.1545 H         1 SUB1        0.000
     28 HD22       -0.0328    3.2678   12.2480 H         1 SUB1        0.000
     29 H           6.1043   -4.2238   17.4510 H         1 SUB1        0.000
     30 HA          7.4447   -5.5908   15.2209 H         1 SUB1        0.000
     31 HB          9.0496   -3.7073   15.9968 H         1 SUB1        0.000
     32 HG12       10.6238   -6.1959   16.2966 H         1 SUB1        0.000
     33 HG11       10.6425   -5.0102   14.9475 H         1 SUB1        0.000
     34 HG23        9.0372   -4.2910   18.5041 H         1 SUB1        0.000
     35 HG22       10.6661   -4.5234   17.7837 H         1 SUB1        0.000
     36 HG21        9.6123   -5.9436   18.0984 H         1 SUB1        0.000
     37 HD13        8.7144   -7.3847   15.2324 H         1 SUB1        0.000
     38 HD12       10.1223   -7.2871   14.1212 H         1 SUB1        0.000
     39 HD11        8.7168   -6.1932   13.8881 H         1 SUB1        0.000
     40 H           7.2494   -7.8193   15.6890 H         1 SUB1        0.000
     41 HA          7.1329   -8.3466   18.6480 H         1 SUB1        0.000
     42 HB          5.4947  -10.1214   18.3013 H         1 SUB1        0.000
     43 HG13        4.9312   -8.1277   19.5223 H         1 SUB1        0.000
     44 HG12        3.5400   -8.5844   18.4819 H         1 SUB1        0.000
     45 HG11        4.6105   -7.2236   18.0036 H         1 SUB1        0.000
     46 HG23        4.8074   -8.7016   15.7205 H         1 SUB1        0.000
     47 HG22        3.7623   -9.8733   16.5932 H         1 SUB1        0.000
     48 HG21        5.3452  -10.4028   15.9294 H         1 SUB1        0.000
     49 H1          1.4976    4.4151    2.2014 H         1 SUB1        0.000
     50 H2          0.4550    5.5715    1.6673 H         1 SUB1        0.000
     51 H3          7.5574    1.4710   10.3812 H         1 SUB1        0.000
     52 H4          6.6819    2.4592   11.5991 H         1 SUB1        0.000
     53 H5          6.0979    0.8097   11.1930 H         1 SUB1        0.000
     54 H6          9.7114    1.5564   13.2926 H         1 SUB1        0.000
     55 H7          8.5936    2.8638   12.7748 H         1 SUB1        0.000
     56 H8          9.5216    1.9370   11.5474 H         1 SUB1        0.000
     57 H9          8.2291   -0.1340   12.1310 H         1 SUB1        0.000
     58 H10         6.8795    1.7897   14.0934 H         1 SUB1        0.000
     59 H11         7.8812    0.3580   14.5100 H         1 SUB1        0.000
     60 H12         6.1083   -0.9764   13.1800 H         1 SUB1        0.000
     61 H13         6.3181   -1.3071   15.4245 H         1 SUB1        0.000
     62 H14         4.7942    1.6802   13.3987 H         1 SUB1        0.000
     63 H15         5.0879   -0.1943   16.9801 H         1 SUB1        0.000
     64 H16         4.1265   -1.9388   14.0658 H         1 SUB1        0.000
     65 H17         3.4190   -1.1355   15.5084 H         1 SUB1        0.000
     66 H18         4.7141   -2.5909   16.9830 H         1 SUB1        0.000
     67 H19         2.7556   -3.4993   14.9520 H         1 SUB1        0.000
     68 H20         2.5016   -5.7821   15.8632 H         1 SUB1        0.000
     69 H21         4.0043   -5.5667   16.8234 H         1 SUB1        0.000
     70 H22         4.0782   -5.5719   15.0287 H         1 SUB1        0.000
     71 H23         2.1525   -2.3743   17.0905 H         1 SUB1        0.000
     72 H24         2.8095   -3.7854   17.9870 H         1 SUB1        0.000
     73 H25         1.3905   -3.9903   16.9048 H         1 SUB1        0.000
     74 N           1.0020    5.2560    2.4530 N.4       1 SUB1        1.000
     75 CA          1.9820    6.3160    2.8350 C.3       1 SUB1        0.000
     76 C           1.9240    6.5840    4.3480 C.2       1 SUB1        0.000
     77 O           2.5670    7.4940    4.9040 O.2       1 SUB1        0.000
     78 CB          1.9220    7.4940    1.8420 C.3       1 SUB1        0.000
     79 CG1         0.8530    8.5550    2.1100 C.3       1 SUB1        0.000
     80 CG2         3.2670    8.1640    1.5910 C.3       1 SUB1        0.000
     81 N           1.2300    5.7170    5.0550 N.am      1 SUB1        0.000
     82 CA          1.1380    5.7310    6.5190 C.3       1 SUB1        0.000
     83 C           1.9960    4.5750    7.0750 C.2       1 SUB1        0.000
     84 O           1.7090    3.4520    6.5870 O.2       1 SUB1        0.000
     85 CB         -0.3420    5.5850    6.8640 C.3       1 SUB1        0.000
     86 OG         -0.4610    4.6260    7.9200 O.3       1 SUB1        0.000
     87 N           2.9620    4.7350    7.9850 N.am      1 SUB1        0.000
     88 CA          3.7350    3.6010    8.5290 C.3       1 SUB1        0.000
     89 C           3.3780    3.2620    9.9960 C.2       1 SUB1        0.000
     90 O           3.0680    4.1750   10.7400 O.2       1 SUB1        0.000
     91 CB          5.2580    3.7560    8.4280 C.3       1 SUB1        0.000
     92 CG          5.7550    4.8040    9.3600 C.3       1 SUB1        0.000
     93 CD          7.1520    4.7760    9.9120 C.2       1 SUB1        0.000
     94 OE1         7.5000    5.7540   10.6080 O.2       1 SUB1        0.000
     95 NE2         7.9060    3.7010    9.6510 N.am      1 SUB1        0.000
     96 N           3.4640    1.9910   10.3560 N.am      1 SUB1        0.000
     97 CA          3.1540    1.3520   11.6200 C.3       1 SUB1        0.000
     98 C           4.0790    0.2790   12.1810 C.2       1 SUB1        0.000
     99 O           3.9390   -0.9260   11.9130 O.2       1 SUB1        0.000
    100 CB          1.7830    0.6110   11.5390 C.3       1 SUB1        0.000
    101 CG          0.7950    1.7170   11.2240 C.2       1 SUB1        0.000
    102 OD1         0.3930    1.8520   10.0760 O.2       1 SUB1        0.000
    103 ND2         0.5960    2.4920   12.3000 N.am      1 SUB1        0.000
    104 CD1         6.9900    1.4400   11.3230 C.3       1 SUB1        0.000
    105 CD2         9.0020    1.8760   12.5150 C.3       1 SUB1        0.000
    106 C1G         7.8610    0.8620   12.4180 C.3       1 SUB1        0.000
    107 C1B         7.1630    0.7720   13.7870 C.3       1 SUB1        0.000
    108 C1A         5.9040   -0.1010   13.8140 C.3       1 SUB1        0.000
    109 CS          5.4650   -0.6750   15.1370 C.3       1 SUB1        0.000
    110 N           4.8810    0.7220   13.1260 N.am      1 SUB1        0.000
    111 OS          5.3690    0.2520   16.1900 O.3       1 SUB1        0.000
    112 CT          4.3100   -1.6420   15.1090 C.3       1 SUB1        0.000
    113 CA          4.5670   -2.9080   15.9400 C.3       1 SUB1        0.000
    114 CB          3.2690   -3.7610   15.8890 C.3       1 SUB1        0.000
    115 CG1         3.4780   -5.2770   15.9020 C.3       1 SUB1        0.000
    116 CG2         2.3420   -3.4570   17.0470 C.3       1 SUB1        0.000
    117 C           5.8300   -3.6840   15.5510 C.2       1 SUB1        0.000
    118 O           6.2810   -3.7280   14.3740 O.2       1 SUB1        0.000
    119 N           6.4270   -4.3430   16.5120 N.am      1 SUB1        0.000
    120 CA          7.5510   -5.2490   16.2610 C.3       1 SUB1        0.000
    121 C           7.2490   -6.4450   17.1810 C.2       1 SUB1        0.000
    122 O           7.0220   -6.1860   18.3730 O.2       1 SUB1        0.000
    123 CB          9.0100   -4.7480   16.3510 C.3       1 SUB1        0.000
    124 CG1        10.0030   -5.6580   15.5650 C.3       1 SUB1        0.000
    125 CG2         9.6280   -4.8870   17.7930 C.3       1 SUB1        0.000
    126 CD1         9.3410   -6.7070   14.6340 C.3       1 SUB1        0.000
    127 N           7.1640   -7.6510   16.6710 N.am      1 SUB1        0.000
    128 CA          6.9320   -8.7560   17.6470 C.3       1 SUB1        0.000
    129 C           8.0450   -9.7880   17.3970 C.2       1 SUB1        0.000
    130 O           8.5500   -9.8630   16.2470 O.co2     1 SUB1       -0.500
    131 CB          5.4770   -9.1940   17.7100 C.3       1 SUB1        0.000
    132 CG1         4.5750   -8.2120   18.4850 C.3       1 SUB1        0.000
    133 CG2         4.8010   -9.5690   16.3970 C.3       1 SUB1        0.000
    134 OXT         8.2990  -10.5400   18.3650 O.co2     1 SUB1       -0.500
@<TRIPOS>BOND
     1   74    1 1  
     2   75    2 1  
     3   78    3 1  
     4   79    4 1  
     5   79    5 1  
     6   79    6 1  
     7   80    7 1  
     8   80    8 1  
     9   80    9 1  
    10   81   10 1  
    11   82   11 1  
    12   85   12 1  
    13   85   13 1  
    14   86   14 1  
    15   87   15 1  
    16   88   16 1  
    17   91   17 1  
    18   91   18 1  
    19   92   19 1  
    20   92   20 1  
    21   95   21 1  
    22   95   22 1  
    23   96   23 1  
    24   97   24 1  
    25  100   25 1  
    26  100   26 1  
    27  103   27 1  
    28  103   28 1  
    29  119   29 1  
    30  120   30 1  
    31  123   31 1  
    32  124   32 1  
    33  124   33 1  
    34  125   34 1  
    35  125   35 1  
    36  125   36 1  
    37  126   37 1  
    38  126   38 1  
    39  126   39 1  
    40  127   40 1  
    41  128   41 1  
    42  131   42 1  
    43  132   43 1  
    44  132   44 1  
    45  132   45 1  
    46  133   46 1  
    47  133   47 1  
    48  133   48 1  
    49   74   49 1  
    50   74   50 1  
    51  104   51 1  
    52  104   52 1  
    53  104   53 1  
    54  105   54 1  
    55  105   55 1  
    56  105   56 1  
    57  106   57 1  
    58  107   58 1  
    59  107   59 1  
    60  108   60 1  
    61  109   61 1  
    62  110   62 1  
    63  111   63 1  
    64  112   64 1  
    65  112   65 1  
    66  113   66 1  
    67  114   67 1  
    68  115   68 1  
    69  115   69 1  
    70  115   70 1  
    71  116   71 1  
    72  116   72 1  
    73  116   73 1  
    74   75   74 1  
    75   75   78 1  
    76   75   76 1  
    77   76   77 2  
    78   78   80 1  
    79   78   79 1  
    80   82   81 1  
    81   82   85 1  
    82   82   83 1  
    83   83   84 2  
    84   85   86 1  
    85   81   76 am 
    86   88   87 1  
    87   88   91 1  
    88   88   89 1  
    89   89   90 2  
    90   91   92 1  
    91   92   93 1  
    92   93   95 am 
    93   93   94 2  
    94   87   83 am 
    95   97   96 1  
    96   97  100 1  
    97   97   98 1  
    98   98   99 2  
    99  100  101 1  
   100  101  103 am 
   101  101  102 2  
   102   96   89 am 
   103  120  119 1  
   104  120  123 1  
   105  120  121 1  
   106  121  122 2  
   107  123  125 1  
   108  123  124 1  
   109  124  126 1  
   110  128  127 1  
   111  128  131 1  
   112  128  129 1  
   113  129  130 ar 
   114  129  134 ar 
   115  131  133 1  
   116  131  132 1  
   117  121  127 am 
   118  104  106 1  
   119  106  107 1  
   120  107  108 1  
   121  108  109 1  
   122  108  110 1  
   123  109  111 1  
   124  109  112 1  
   125  110   98 am 
   126  112  113 1  
   127  113  114 1  
   128  113  117 1  
   129  114  115 1  
   130  114  116 1  
   131  117  118 2  
   132  117  119 am 
   133  106  105 1  
@<TRIPOS>SUBSTRUCTURE
     1 SUB1        1 GROUP

