### Name: 9aat_ligand
### Creating user name: arthur
### Creation time: Tue Nov 27 11:30:28 2001


@<TRIPOS>MOLECULE
9aat_ligand
   28    28     1     0     0
SMALL
USER_CHARGES


@<TRIPOS>ATOM
      1 H1          8.1767   -2.4056    8.6220 H         1 SUB1        0.000
      2 H2          6.4791   -2.0068    9.0530 H         1 SUB1        0.000
      3 H3          7.3377   -3.3288    9.9143 H         1 SUB1        0.000
      4 H4          9.3373   -1.3671    8.4967 H         1 SUB1        0.000
      5 H5         11.4357    0.6204   10.3813 H         1 SUB1        0.000
      6 H6         11.0824    1.7152   11.7610 H         1 SUB1        0.000
      7 H7         11.2130    2.8989    9.6857 H         1 SUB1        0.000
      8 H8          9.6863    2.9899   10.2941 H         1 SUB1        0.000
      9 H9         10.0100    1.9867    9.0299 H         1 SUB1        0.000
     10 H10         7.3011   -0.4229   13.6564 H         1 SUB1        0.000
     11 H11        10.4168    0.9719   13.7516 H         1 SUB1        0.000
     12 H12         8.7871    1.4143   14.3641 H         1 SUB1        0.000
     13 N1          7.2650   -1.0450   11.6190 N.ar      1 SUB1        0.000
     14 C2          7.9500   -1.3390   10.4850 C.ar      1 SUB1        0.000
     15 C2A         7.4510   -2.3400    9.4460 C.3       1 SUB1        0.000
     16 C3          9.0020   -0.4530   10.1760 C.ar      1 SUB1        0.000
     17 O3          9.7650   -0.7010    9.0220 O.3       1 SUB1        0.000
     18 C4          9.4140    0.4970   11.1310 C.ar      1 SUB1        0.000
     19 C4A        10.6850    1.2890   10.8280 C.3       1 SUB1        0.000
     20 N4         10.3740    2.3770    9.8850 N.4       1 SUB1        1.000
     21 C5          8.7930    0.5250   12.3880 C.ar      1 SUB1        0.000
     22 C6          7.7280   -0.3340   12.6640 C.ar      1 SUB1        0.000
     23 C5A         9.4400    1.3980   13.4790 C.3       1 SUB1        0.000
     24 OP4         9.6250    2.7330   13.0070 O.3       1 SUB1        0.000
     25 P           9.9540    3.8940   14.0660 P.3       1 SUB1        0.000
     26 OP1        11.2940    4.4300   13.6820 O.co2     1 SUB1       -0.500
     27 OP2        10.0620    3.3120   15.4390 O.co2     1 SUB1       -0.500
     28 OP3         8.9380    4.9640   13.9330 O.co2     1 SUB1       -0.500
@<TRIPOS>BOND
     1   15    1 1  
     2   15    2 1  
     3   15    3 1  
     4   17    4 1  
     5   19    5 1  
     6   19    6 1  
     7   20    7 1  
     8   20    8 1  
     9   20    9 1  
    10   22   10 1  
    11   23   11 1  
    12   23   12 1  
    13   13   14 ar 
    14   13   22 ar 
    15   14   15 1  
    16   14   16 ar 
    17   16   17 1  
    18   16   18 ar 
    19   18   19 1  
    20   18   21 ar 
    21   19   20 1  
    22   21   22 ar 
    23   21   23 1  
    24   23   24 1  
    25   24   25 1  
    26   25   26 ar 
    27   25   27 ar 
    28   25   28 ar 
@<TRIPOS>SUBSTRUCTURE
     1 SUB1        1 GROUP

