### Name: 9hvp_ligand
### Creating user name: arthur
### Creation time: Tue Nov 27 11:30:30 2001


@<TRIPOS>MOLECULE
9hvp_ligand
  106   109     1     0     0
SMALL
USER_CHARGES


@<TRIPOS>ATOM
      1 C         -12.0830   14.5940   33.2610 C.2       1 SUB1        0.000
      2 O         -12.6000   15.6490   33.6620 O.2       1 SUB1        0.000
      3 OA        -12.6010   13.3120   33.6680 O.3       1 SUB1        0.000
      4 CB        -13.2990   13.0090   34.8480 C.3       1 SUB1        0.000
      5 CG        -12.8260   11.9560   35.9160 C.ar      1 SUB1        0.000
      6 CD1       -12.5480   10.6110   35.5570 C.ar      1 SUB1        0.000
      7 CD2       -12.7360   12.3010   37.2760 C.ar      1 SUB1        0.000
      8 CE1       -12.2150    9.6550   36.5140 C.ar      1 SUB1        0.000
      9 CE2       -12.3950   11.3240   38.2050 C.ar      1 SUB1        0.000
     10 CZ        -12.1380   10.0200   37.8370 C.ar      1 SUB1        0.000
     11 N         -10.9760   14.5410   32.5060 N.am      1 SUB1        0.000
     12 CA        -10.2250   15.6900   32.0200 C.3       1 SUB1        0.000
     13 C         -10.1590   15.5510   30.5150 C.2       1 SUB1        0.000
     14 O          -9.4670   14.6840   29.9680 O.2       1 SUB1        0.000
     15 CB         -8.7490   15.7380   32.5720 C.3       1 SUB1        0.000
     16 CG1        -8.0760   17.0320   32.1460 C.3       1 SUB1        0.000
     17 CG2        -8.6650   15.6460   34.0760 C.3       1 SUB1        0.000
     18 C1        -12.3970   16.2450   27.9550 C.3       1 SUB1        0.000
     19 C2        -10.9880   16.5300   28.4010 C.3       1 SUB1        0.000
     20 C3        -10.3550   17.6980   27.6880 C.3       1 SUB1        0.000
     21 C4         -8.8160   17.5400   27.4670 C.3       1 SUB1        0.000
     22 C5         -7.9110   18.6430   28.0820 C.3       1 SUB1        0.000
     23 C1A       -12.7300   14.8260   28.4350 C.ar      1 SUB1        0.000
     24 C2A       -12.1450   13.7400   27.7940 C.ar      1 SUB1        0.000
     25 C3A       -12.2950   12.4830   28.3300 C.ar      1 SUB1        0.000
     26 C4A       -13.0330   12.3000   29.4880 C.ar      1 SUB1        0.000
     27 C5A       -13.6280   13.3790   30.1080 C.ar      1 SUB1        0.000
     28 C6A       -13.4810   14.6450   29.5930 C.ar      1 SUB1        0.000
     29 C1B        -6.5470   18.7380   27.3950 C.ar      1 SUB1        0.000
     30 C2B        -6.3670   19.6140   26.3380 C.ar      1 SUB1        0.000
     31 C3B        -5.2410   19.5210   25.5490 C.ar      1 SUB1        0.000
     32 C4B        -4.2870   18.5470   25.8320 C.ar      1 SUB1        0.000
     33 C5B        -4.4380   17.6730   26.8960 C.ar      1 SUB1        0.000
     34 C6B        -5.5690   17.7770   27.6800 C.ar      1 SUB1        0.000
     35 O3        -10.5550   18.7350   28.5720 O.3       1 SUB1        0.000
     36 N2        -10.9200   16.4470   29.8780 N.am      1 SUB1        0.000
     37 N4         -8.6210   17.4690   26.0050 N.am      1 SUB1        0.000
     38 N          -7.0430   16.7750   23.4060 N.am      1 SUB1        0.000
     39 CA         -8.4190   16.5220   23.8030 C.3       1 SUB1        0.000
     40 C          -8.3660   16.3310   25.3210 C.2       1 SUB1        0.000
     41 O          -7.9880   15.2560   25.8270 O.2       1 SUB1        0.000
     42 CB         -9.1210   15.3060   23.1670 C.3       1 SUB1        0.000
     43 CG1       -10.5990   15.5070   23.4070 C.3       1 SUB1        0.000
     44 CG2        -8.7550   15.1110   21.6910 C.3       1 SUB1        0.000
     45 C          -6.7510   17.8020   22.6040 C.2       1 SUB1        0.000
     46 O          -7.5630   18.4100   21.8750 O.2       1 SUB1        0.000
     47 OA         -5.4000   18.1330   22.5140 O.3       1 SUB1        0.000
     48 CB         -4.6830   18.4410   21.3980 C.3       1 SUB1        0.000
     49 CG         -3.2830   17.8450   21.4820 C.ar      1 SUB1        0.000
     50 CD1        -2.2080   18.6600   21.7690 C.ar      1 SUB1        0.000
     51 CD2        -3.1380   16.4680   21.3740 C.ar      1 SUB1        0.000
     52 CE1        -0.9790   18.0670   21.9600 C.ar      1 SUB1        0.000
     53 CE2        -1.9040   15.8970   21.5790 C.ar      1 SUB1        0.000
     54 CZ         -0.8230   16.6920   21.8730 C.ar      1 SUB1        0.000
     55 H         -10.6370   13.6343   32.2551 H         1 SUB1        0.000
     56 HA        -10.7471   16.6168   32.3000 H         1 SUB1        0.000
     57 HB         -8.1986   14.8883   32.1417 H         1 SUB1        0.000
     58 HG13       -8.0442   17.0844   31.0477 H         1 SUB1        0.000
     59 HG12       -7.0510   17.0606   32.5442 H         1 SUB1        0.000
     60 HG11       -8.6455   17.8877   32.5376 H         1 SUB1        0.000
     61 HG23       -9.2034   16.4932   34.5258 H         1 SUB1        0.000
     62 HG22       -7.6102   15.6753   34.3868 H         1 SUB1        0.000
     63 HG21       -9.1201   14.7025   34.4117 H         1 SUB1        0.000
     64 H          -6.3121   16.1771   23.7351 H         1 SUB1        0.000
     65 HA         -9.0165   17.4127   23.5590 H         1 SUB1        0.000
     66 HB         -8.8028   14.3985   23.7010 H         1 SUB1        0.000
     67 HG13      -10.7927   15.5460   24.4891 H         1 SUB1        0.000
     68 HG12      -11.1595   14.6705   22.9641 H         1 SUB1        0.000
     69 HG11      -10.9209   16.4507   22.9426 H         1 SUB1        0.000
     70 HG23       -9.0575   15.9997   21.1178 H         1 SUB1        0.000
     71 HG22       -9.2766   14.2260   21.2977 H         1 SUB1        0.000
     72 HG21       -7.6684   14.9673   21.5985 H         1 SUB1        0.000
     73 ****      -14.2960   12.6752   34.5247 H         1 SUB1        0.000
     74 ****      -13.3894   13.9612   35.3912 H         1 SUB1        0.000
     75 ****      -12.5960   10.3210   34.5136 H         1 SUB1        0.000
     76 ****      -12.9304   13.3180   37.5971 H         1 SUB1        0.000
     77 ****      -12.0181    8.6311   36.2176 H         1 SUB1        0.000
     78 ****      -12.3291   11.5962   39.2522 H         1 SUB1        0.000
     79 ****      -11.8759    9.2847   38.5892 H         1 SUB1        0.000
     80 ****      -12.4668   16.3010   26.8587 H         1 SUB1        0.000
     81 ****      -13.0914   16.9703   28.4041 H         1 SUB1        0.000
     82 ****      -10.3938   15.6709   28.0563 H         1 SUB1        0.000
     83 ****      -10.8508   17.8800   26.7231 H         1 SUB1        0.000
     84 ****       -8.5079   16.5847   27.9169 H         1 SUB1        0.000
     85 ****       -7.7537   18.4161   29.1468 H         1 SUB1        0.000
     86 ****       -8.4221   19.6122   27.9852 H         1 SUB1        0.000
     87 ****      -11.5770   13.8827   26.8818 H         1 SUB1        0.000
     88 ****      -11.8336   11.6309   27.8442 H         1 SUB1        0.000
     89 ****      -13.1431   11.3067   29.9078 H         1 SUB1        0.000
     90 ****      -14.2150   13.2277   31.0067 H         1 SUB1        0.000
     91 ****      -13.9449   15.4932   30.0833 H         1 SUB1        0.000
     92 ****       -7.1123   20.3735   26.1310 H         1 SUB1        0.000
     93 ****       -5.0993   20.1998   24.7158 H         1 SUB1        0.000
     94 ****       -3.4058   18.4710   25.2052 H         1 SUB1        0.000
     95 ****       -3.6841   16.9236   27.1083 H         1 SUB1        0.000
     96 ****       -5.7015   17.1092   28.5235 H         1 SUB1        0.000
     97 ****      -11.4863   18.8488   28.7211 H         1 SUB1        0.000
     98 ****      -11.4648   17.0864   30.4205 H         1 SUB1        0.000
     99 ****       -8.6817   18.3211   25.4852 H         1 SUB1        0.000
    100 ****       -4.6060   19.5346   21.3075 H         1 SUB1        0.000
    101 ****       -5.1968   18.0351   20.5141 H         1 SUB1        0.000
    102 ****       -2.3264   19.7350   21.8421 H         1 SUB1        0.000
    103 ****       -3.9924   15.8472   21.1296 H         1 SUB1        0.000
    104 ****       -0.1181   18.6870   22.1824 H         1 SUB1        0.000
    105 ****       -1.7845   14.8219   21.5088 H         1 SUB1        0.000
    106 ****        0.1508   16.2449   22.0368 H         1 SUB1        0.000
@<TRIPOS>BOND
     1   12   11 1  
     2   12   15 1  
     3   12   13 1  
     4   13   14 2  
     5   15   17 1  
     6   15   16 1  
     7   39   38 1  
     8   39   42 1  
     9   39   40 1  
    10   40   41 2  
    11   42   44 1  
    12   42   43 1  
    13    1    2 2  
    14    1    3 1  
    15    3    4 1  
    16    4    5 1  
    17    5    6 ar 
    18    5    7 ar 
    19    6    8 ar 
    20    7    9 ar 
    21    8   10 ar 
    22    9   10 ar 
    23   18   19 1  
    24   18   23 1  
    25   19   20 1  
    26   19   36 1  
    27   20   21 1  
    28   20   35 1  
    29   21   22 1  
    30   21   37 1  
    31   22   29 1  
    32   23   24 ar 
    33   23   28 ar 
    34   24   25 ar 
    35   25   26 ar 
    36   26   27 ar 
    37   27   28 ar 
    38   29   30 ar 
    39   29   34 ar 
    40   30   31 ar 
    41   31   32 ar 
    42   32   33 ar 
    43   33   34 ar 
    44   45   46 2  
    45   45   47 1  
    46   47   48 1  
    47   48   49 1  
    48   49   50 ar 
    49   49   51 ar 
    50   50   52 ar 
    51   51   53 ar 
    52   52   54 ar 
    53   53   54 ar 
    54   11    1 am 
    55   13   36 am 
    56   37   40 am 
    57   38   45 am 
    58   11   55 1  
    59   12   56 1  
    60   15   57 1  
    61   16   58 1  
    62   16   59 1  
    63   16   60 1  
    64   17   61 1  
    65   17   62 1  
    66   17   63 1  
    67   38   64 1  
    68   39   65 1  
    69   42   66 1  
    70   43   67 1  
    71   43   68 1  
    72   43   69 1  
    73   44   70 1  
    74   44   71 1  
    75   44   72 1  
    76    4   73 1  
    77    4   74 1  
    78    6   75 1  
    79    7   76 1  
    80    8   77 1  
    81    9   78 1  
    82   10   79 1  
    83   18   80 1  
    84   18   81 1  
    85   19   82 1  
    86   20   83 1  
    87   21   84 1  
    88   22   85 1  
    89   22   86 1  
    90   24   87 1  
    91   25   88 1  
    92   26   89 1  
    93   27   90 1  
    94   28   91 1  
    95   30   92 1  
    96   31   93 1  
    97   32   94 1  
    98   33   95 1  
    99   34   96 1  
   100   35   97 1  
   101   36   98 1  
   102   37   99 1  
   103   48  100 1  
   104   48  101 1  
   105   50  102 1  
   106   51  103 1  
   107   52  104 1  
   108   53  105 1  
   109   54  106 1  
@<TRIPOS>SUBSTRUCTURE
     1 SUB1        1 GROUP

