### Name: 9icd_ligand
### Creating user name: arthur
### Creation time: Tue Nov 27 11:30:28 2001


@<TRIPOS>MOLECULE
9icd_ligand
   38    40     1     0     0
SMALL
USER_CHARGES


@<TRIPOS>ATOM
      1 H1         92.1813   71.2383   -4.4913 H         1 SUB1        0.000
      2 H2         92.7478   70.2878   -5.9064 H         1 SUB1        0.000
      3 H3         94.0584   72.2045   -5.7643 H         1 SUB1        0.000
      4 H4         95.6510   69.8332   -4.7060 H         1 SUB1        0.000
      5 H5         96.4216   69.9230   -6.8636 H         1 SUB1        0.000
      6 H6         97.6649   71.3303   -4.9674 H         1 SUB1        0.000
      7 H7         96.4673   73.1144   -3.3457 H         1 SUB1        0.000
      8 H8         94.9698   69.5658   -2.5072 H         1 SUB1        0.000
      9 H9         99.0381   69.8483    2.1720 H         1 SUB1        0.000
     10 H10        97.6657   68.9561    1.4626 H         1 SUB1        0.000
     11 H11        99.9497   73.2237   -0.5882 H         1 SUB1        0.000
     12 AP         92.2630   68.0070   -4.8080 P.3       1 SUB1        0.000
     13 AO1        90.9990   67.5990   -4.0720 O.co2     1 SUB1       -0.500
     14 AO2        92.1430   68.3570   -6.2680 O.co2     1 SUB1       -0.500
     15 AO5'       92.9560   69.3650   -4.0630 O.3       1 SUB1        0.000
     16 AC5'       92.9840   70.5920   -4.8760 C.3       1 SUB1        0.000
     17 AC4'       94.2650   71.4820   -4.9610 C.3       1 SUB1        0.000
     18 AO4'       94.6380   72.2440   -3.7720 O.3       1 SUB1        0.000
     19 AC3'       95.5560   70.7450   -5.3140 C.3       1 SUB1        0.000
     20 AO3'       95.6060   70.3770   -6.6870 O.3       1 SUB1        0.000
     21 AC2'       96.6440   71.7390   -4.9400 C.3       1 SUB1        0.000
     22 AO2'       96.5020   73.0090   -5.5770 O.3       1 SUB1        0.000
     23 AC1'       96.0700   72.1220   -3.6050 C.3       1 SUB1        0.000
     24 AN9        96.4410   71.2080   -2.4800 N.pl3     1 SUB1        0.000
     25 AC8        95.8060   70.0480   -2.0030 C.2       1 SUB1        0.000
     26 AN7        96.3310   69.6110   -0.8850 N.2       1 SUB1        0.000
     27 AC5        97.3580   70.5150   -0.5980 C.ar      1 SUB1        0.000
     28 AC6        98.2850   70.5970    0.4440 C.ar      1 SUB1        0.000
     29 AN6        98.3330   69.7400    1.4290 N.pl3     1 SUB1        0.000
     30 AN1        99.1900   71.5750    0.3900 N.ar      1 SUB1        0.000
     31 AC2        99.1860   72.4550   -0.6200 C.ar      1 SUB1        0.000
     32 AN3        98.3490   72.4960   -1.6640 N.ar      1 SUB1        0.000
     33 AC4        97.4410   71.4870   -1.5770 C.ar      1 SUB1        0.000
     34 O3         93.4580   66.8580   -4.7070 O.co2     1 SUB1       -0.500
     35 AP2'       97.5240   73.6230   -6.7080 P.3       1 SUB1        0.000
     36 AOP1       97.0190   74.9710   -7.1020 O.co2     1 SUB1       -0.500
     37 AOP2       97.6760   72.5310   -7.7170 O.co2     1 SUB1       -0.500
     38 AOP3       98.9760   73.9170   -6.0420 O.co2     1 SUB1       -0.500
@<TRIPOS>BOND
     1   16    1 1  
     2   16    2 1  
     3   17    3 1  
     4   19    4 1  
     5   20    5 1  
     6   21    6 1  
     7   23    7 1  
     8   25    8 1  
     9   29    9 1  
    10   29   10 1  
    11   31   11 1  
    12   12   13 ar 
    13   12   14 ar 
    14   12   15 1  
    15   12   34 ar 
    16   15   16 1  
    17   16   17 1  
    18   17   18 1  
    19   17   19 1  
    20   18   23 1  
    21   19   20 1  
    22   19   21 1  
    23   21   22 1  
    24   21   23 1  
    25   22   35 1  
    26   23   24 1  
    27   24   25 1  
    28   24   33 1  
    29   25   26 2  
    30   26   27 1  
    31   27   28 ar 
    32   27   33 ar 
    33   28   29 1  
    34   28   30 ar 
    35   30   31 ar 
    36   31   32 ar 
    37   32   33 ar 
    38   35   36 ar 
    39   35   37 ar 
    40   35   38 ar 
@<TRIPOS>SUBSTRUCTURE
     1 SUB1        1 GROUP

