### Name: 9rub_ligand
### Creating user name: arthur
### Creation time: Tue Nov 27 11:30:30 2001


@<TRIPOS>MOLECULE
9rub_ligand
   26    25     1     0     0
SMALL
USER_CHARGES


@<TRIPOS>ATOM
      1 H1         29.1057   17.5937   33.8126 H         1 SUB1        0.000
      2 H2         29.6862   19.1706   34.4474 H         1 SUB1        0.000
      3 H3         30.4242   15.5519   35.1381 H         1 SUB1        0.000
      4 H4         33.1079   14.9099   33.9922 H         1 SUB1        0.000
      5 H5         31.4660   13.3568   32.5199 H         1 SUB1        0.000
      6 H6         30.2008   13.8971   33.6749 H         1 SUB1        0.000
      7 H7         31.9463   16.2683   36.7526 H         1 SUB1        0.000
      8 H8         32.4415   16.6504   32.5923 H         1 SUB1        0.000
      9 C1         29.7340   18.0790   34.5740 C.3       1 SUB1        0.000
     10 C2         31.2090   17.5300   34.5890 C.2       1 SUB1        0.000
     11 C3         31.4150   15.9690   34.9050 C.3       1 SUB1        0.000
     12 C4         32.0560   15.1120   33.7420 C.3       1 SUB1        0.000
     13 C5         31.2770   13.7110   33.5440 C.3       1 SUB1        0.000
     14 O1         29.4140   17.6570   35.9150 O.3       1 SUB1        0.000
     15 O2         32.1440   18.3280   34.3730 O.2       1 SUB1        0.000
     16 O3         32.2730   15.7770   36.0080 O.3       1 SUB1        0.000
     17 O4         31.9900   15.8190   32.5060 O.3       1 SUB1        0.000
     18 O5         31.6810   12.6220   34.4960 O.3       1 SUB1        0.000
     19 P1         27.9420   17.0800   36.3540 P.3       1 SUB1        0.000
     20 P2         31.0190   11.0720   34.3930 P.3       1 SUB1        0.000
     21 O1P        26.7980   18.1820   36.1370 O.co2     1 SUB1       -0.500
     22 O2P        28.0060   16.6230   37.8930 O.co2     1 SUB1       -0.500
     23 O3P        27.4930   15.8050   35.4930 O.co2     1 SUB1       -0.500
     24 O4P        29.8410   10.9680   33.3030 O.co2     1 SUB1       -0.500
     25 O5P        30.5010   10.5670   35.8520 O.co2     1 SUB1       -0.500
     26 O6P        32.0640    9.9700   33.9090 O.co2     1 SUB1       -0.500
@<TRIPOS>BOND
     1    9    1 1  
     2    9    2 1  
     3   11    3 1  
     4   12    4 1  
     5   13    5 1  
     6   13    6 1  
     7   16    7 1  
     8   17    8 1  
     9    9   10 1  
    10    9   14 1  
    11   10   11 1  
    12   10   15 2  
    13   11   12 1  
    14   11   16 1  
    15   12   13 1  
    16   12   17 1  
    17   13   18 1  
    18   14   19 1  
    19   18   20 1  
    20   19   21 ar 
    21   19   22 ar 
    22   19   23 ar 
    23   20   24 ar 
    24   20   25 ar 
    25   20   26 ar 
@<TRIPOS>SUBSTRUCTURE
     1 SUB1        1 GROUP

