### 
### Created by X-TOOL on Fri Dec  5 23:42:09 2003
### 

@<TRIPOS>MOLECULE
1ppc-ligand.1ppc.001
   69    72     1     0     0
SMALL
USER_CHARGES


@<TRIPOS>ATOM
      1 S          -5.4880    5.1640   26.0000 S.o2      1 SUB1        0.057
      2 O1         -6.4320    6.3330   26.3090 O.2       1 SUB1        0.138
      3 O2         -6.2170    3.8410   26.2150 O.2       1 SUB1        0.108
      4 C1         -3.5480    4.2880   27.8100 C.ar      1 SUB1        0.176
      5 C2         -4.0530    5.3220   27.0650 C.ar      1 SUB1        0.103
      6 C3         -3.4770    6.5570   27.1660 C.ar      1 SUB1        0.242
      7 C4         -2.4430    6.7690   28.0490 C.ar      1 SUB1        0.261
      8 C5         -0.9010    5.9600   29.6560 C.ar      1 SUB1        0.279
      9 C6         -0.3730    4.9080   30.3820 C.ar      1 SUB1        0.221
     10 C7         -0.9240    3.6450   30.2730 C.ar      1 SUB1        0.239
     11 C8         -2.0030    3.4170   29.4330 C.ar      1 SUB1        0.181
     12 C9         -2.4920    4.4650   28.6780 C.ar      1 SUB1        0.187
     13 C10        -1.9530    5.7220   28.7960 C.ar      1 SUB1        0.228
     14 N          -5.1290    5.1170   24.3810 N.am      1 SUB1        0.061
     15 CA         -4.2890    4.0040   24.0080 C.3       1 SUB1        0.053
     16 C          -2.9540    4.4100   23.3950 C.2       1 SUB1        0.103
     17 O          -2.0860    5.0170   24.0340 O.2       1 SUB1        0.142
     18 C          -1.0530    2.9850   21.0670 C.2       1 SUB1        0.113
     19 CA         -1.7800    4.3240   21.1940 C.3       1 SUB1        0.137
     20 CB         -2.2320    4.8200   19.8110 C.3       1 SUB1        0.147
     21 CG         -2.6240    6.2840   19.8010 C.ar      1 SUB1        0.182
     22 CD1        -1.6590    7.2710   19.8960 C.ar      1 SUB1        0.263
     23 CD2        -3.9390    6.6340   19.6060 C.ar      1 SUB1        0.243
     24 CE1        -2.0110    8.6060   19.8330 C.ar      1 SUB1        0.274
     25 CE2        -4.2850    7.9700   19.5490 C.ar      1 SUB1        0.261
     26 CZ         -3.3280    8.9730   19.6400 C.ar      1 SUB1        0.258
     27 CF         -3.7050   10.3170   19.5080 C.cat     1 SUB1        0.238
     28 O          -1.3580    2.1880   20.1740 O.2       1 SUB1        0.136
     29 N          -2.9140    4.1170   22.0840 N.am      1 SUB1        0.097
     30 NG1        -4.7350   10.8180   20.2150 N.pl3     1 SUB1        0.288
     31 NG2        -2.9740   11.1060   18.7100 N.pl3     1 SUB1        0.306
     32 N1         -0.0670    2.6960   21.9320 N.am      1 SUB1        0.150
     33 C2          0.4760    3.6660   22.8700 C.3       1 SUB1        0.164
     34 C3          0.3100    3.0910   24.2560 C.3       1 SUB1        0.237
     35 C4          1.1790    1.8460   24.3440 C.3       1 SUB1        0.247
     36 C5          0.6730    0.8770   23.2790 C.3       1 SUB1        0.146
     37 C6          0.6990    1.4590   21.8810 C.3       1 SUB1        0.139
     38 H          -5.4630    5.7950   23.7260 H         1 SUB1        0.000
     39 HA1        -4.0880    3.4060   24.9090 H         1 SUB1        0.000
     40 HA2        -4.8330    3.3910   23.2750 H         1 SUB1        0.000
     41 H          -3.9920    3.3030   27.7140 H         1 SUB1        0.000
     42 H          -3.8360    7.3730   26.5500 H         1 SUB1        0.000
     43 H          -2.0140    7.7590   28.1560 H         1 SUB1        0.000
     44 H          -0.4930    6.9590   29.7610 H         1 SUB1        0.000
     45 H           0.4740    5.0740   31.0380 H         1 SUB1        0.000
     46 H          -0.5090    2.8260   30.8480 H         1 SUB1        0.000
     47 H          -2.4560    2.4340   29.3710 H         1 SUB1        0.000
     48 H          -1.1030    5.0720   21.6340 H         1 SUB1        0.000
     49 H          -3.0990    4.2240   19.4920 H         1 SUB1        0.000
     50 H          -1.4060    4.6740   19.1000 H         1 SUB1        0.000
     51 H          -0.6180    6.9950   20.0210 H         1 SUB1        0.000
     52 H          -4.6990    5.8680   19.4960 H         1 SUB1        0.000
     53 H          -1.2480    9.3680   19.9360 H         1 SUB1        0.000
     54 H          -5.3270    8.2420   19.4310 H         1 SUB1        0.000
     55 H          -3.7400    3.7210   21.6810 H         1 SUB1        0.000
     56 H          -5.5950   11.1140   19.7320 H         1 SUB1        0.000
     57 H          -4.6630   10.9050   21.2380 H         1 SUB1        0.000
     58 H          -3.1770   12.1140   18.6570 H         1 SUB1        0.000
     59 H          -2.2090   10.7040   18.1500 H         1 SUB1        0.000
     60 H          -0.0720    4.6170   22.7870 H         1 SUB1        0.000
     61 H           1.5420    3.8380   22.6580 H         1 SUB1        0.000
     62 H          -0.7440    2.8260   24.4280 H         1 SUB1        0.000
     63 H           0.6300    3.8260   25.0090 H         1 SUB1        0.000
     64 H           1.0910    1.3920   25.3410 H         1 SUB1        0.000
     65 H           2.2300    2.1050   24.1500 H         1 SUB1        0.000
     66 H          -0.3630    0.6000   23.5230 H         1 SUB1        0.000
     67 H           1.3070   -0.0230   23.2950 H         1 SUB1        0.000
     68 H           1.7350    1.6660   21.5750 H         1 SUB1        0.000
     69 H           0.2400    0.7570   21.1690 H         1 SUB1        0.000
@<TRIPOS>BOND
     1   15   14 1  
     2   16   15 1  
     3   16   17 2  
     4    1    2 2  
     5    1    3 2  
     6    1    5 1  
     7   14    1 1  
     8    5    6 ar 
     9    6    7 ar 
    10    7   13 ar 
    11    8    9 ar 
    12   13    8 ar 
    13    9   10 ar 
    14   11   10 ar 
    15   12   11 ar 
    16   13   12 ar 
    17   19   18 1  
    18   18   28 2  
    19   18   32 am 
    20   19   20 1  
    21   29   19 1  
    22   20   21 1  
    23   21   22 ar 
    24   22   24 ar 
    25   21   23 ar 
    26   23   25 ar 
    27   24   26 ar 
    28   25   26 ar 
    29   26   27 1  
    30   27   30 ar 
    31   27   31 ar 
    32   29   16 am 
    33   32   33 1  
    34   32   37 1  
    35   33   34 1  
    36   34   35 1  
    37   35   36 1  
    38   36   37 1  
    39   12    4 ar 
    40    5    4 ar 
    41   14   38 1  
    42   15   39 1  
    43   15   40 1  
    44    4   41 1  
    45    6   42 1  
    46    7   43 1  
    47    8   44 1  
    48    9   45 1  
    49   10   46 1  
    50   11   47 1  
    51   19   48 1  
    52   20   49 1  
    53   20   50 1  
    54   22   51 1  
    55   23   52 1  
    56   24   53 1  
    57   25   54 1  
    58   29   55 1  
    59   30   56 1  
    60   30   57 1  
    61   31   58 1  
    62   31   59 1  
    63   33   60 1  
    64   33   61 1  
    65   34   62 1  
    66   34   63 1  
    67   35   64 1  
    68   35   65 1  
    69   36   66 1  
    70   36   67 1  
    71   37   68 1  
    72   37   69 1  
@<TRIPOS>SUBSTRUCTURE
     1 SUB1        1 GROUP

