### 
### Created by X-TOOL on Fri Dec  5 23:42:09 2003
### 

@<TRIPOS>MOLECULE
1ppc-ligand.1ppc.002
   69    72     1     0     0
SMALL
USER_CHARGES


@<TRIPOS>ATOM
      1 S          -3.8500    4.1470   25.8340 S.o2      1 SUB1        0.047
      2 O1         -5.0360    3.2740   26.2640 O.2       1 SUB1        0.104
      3 O2         -2.7240    3.2620   25.3040 O.2       1 SUB1        0.113
      4 C1         -2.1800    5.8480   27.2900 C.ar      1 SUB1        0.240
      5 C2         -3.3350    5.1110   27.2560 C.ar      1 SUB1        0.102
      6 C3         -4.1210    5.0550   28.3730 C.ar      1 SUB1        0.184
      7 C4         -3.7250    5.6830   29.5310 C.ar      1 SUB1        0.195
      8 C5         -2.1980    7.0500   30.7210 C.ar      1 SUB1        0.258
      9 C6         -1.0490    7.8190   30.7420 C.ar      1 SUB1        0.317
     10 C7         -0.2540    7.9110   29.6150 C.ar      1 SUB1        0.321
     11 C8         -0.6020    7.2410   28.4520 C.ar      1 SUB1        0.230
     12 C9         -1.7760    6.5140   28.4280 C.ar      1 SUB1        0.250
     13 C10        -2.5580    6.4120   29.5520 C.ar      1 SUB1        0.230
     14 N          -4.2480    5.0570   24.5050 N.am      1 SUB1        0.056
     15 CA         -3.1570    5.8610   24.0090 C.3       1 SUB1        0.051
     16 C          -3.2020    6.1140   22.5070 C.2       1 SUB1        0.121
     17 O          -4.2470    6.4070   21.9130 O.2       1 SUB1        0.162
     18 C          -1.3960    7.5400   20.3190 C.2       1 SUB1        0.173
     19 CA         -1.6760    6.0520   20.5320 C.3       1 SUB1        0.173
     20 CB         -0.4520    5.2140   20.1300 C.3       1 SUB1        0.148
     21 CG         -0.5130    3.7870   20.6350 C.ar      1 SUB1        0.129
     22 CD1        -1.0940    2.7930   19.8670 C.ar      1 SUB1        0.196
     23 CD2         0.0910    3.4600   21.8260 C.ar      1 SUB1        0.194
     24 CE1        -1.1030    1.4820   20.3040 C.ar      1 SUB1        0.164
     25 CE2         0.0740    2.1490   22.2600 C.ar      1 SUB1        0.172
     26 CZ         -0.5020    1.1390   21.4990 C.ar      1 SUB1        0.138
     27 CF         -0.4390   -0.1920   21.9350 C.cat     1 SUB1        0.115
     28 O          -0.3260    8.0350   20.6890 O.2       1 SUB1        0.158
     29 N          -2.0080    5.8710   21.9390 N.am      1 SUB1        0.122
     30 NG1        -1.3130   -0.6620   22.8450 N.pl3     1 SUB1        0.101
     31 NG2         0.4690   -1.0010   21.3770 N.pl3     1 SUB1        0.115
     32 N1         -2.3240    8.2960   19.7120 N.am      1 SUB1        0.213
     33 C2         -3.5070    7.7410   19.0740 C.3       1 SUB1        0.214
     34 C3         -4.7100    8.3790   19.7280 C.3       1 SUB1        0.239
     35 C4         -4.6770    9.8630   19.3980 C.3       1 SUB1        0.290
     36 C5         -3.3770   10.4160   19.9750 C.3       1 SUB1        0.299
     37 C6         -2.1430    9.7160   19.4440 C.3       1 SUB1        0.253
     38 H          -5.1560    5.0490   24.0870 H         1 SUB1        0.000
     39 HA1        -3.1820    6.8330   24.5240 H         1 SUB1        0.000
     40 HA2        -2.2130    5.3470   24.2440 H         1 SUB1        0.000
     41 H          -1.5670    5.9100   26.3980 H         1 SUB1        0.000
     42 H          -5.0600    4.5140   28.3460 H         1 SUB1        0.000
     43 H          -4.3310    5.6030   30.4270 H         1 SUB1        0.000
     44 H          -2.8080    6.9490   31.6120 H         1 SUB1        0.000
     45 H          -0.7710    8.3510   31.6450 H         1 SUB1        0.000
     46 H           0.6470    8.5110   29.6400 H         1 SUB1        0.000
     47 H           0.0370    7.2870   27.5780 H         1 SUB1        0.000
     48 H          -2.5330    5.7450   19.9130 H         1 SUB1        0.000
     49 H           0.4490    5.6920   20.5420 H         1 SUB1        0.000
     50 H          -0.3870    5.1940   19.0330 H         1 SUB1        0.000
     51 H          -1.5450    3.0450   18.9140 H         1 SUB1        0.000
     52 H           0.5780    4.2250   22.4210 H         1 SUB1        0.000
     53 H          -1.5850    0.7190   19.7040 H         1 SUB1        0.000
     54 H           0.5200    1.9020   23.2160 H         1 SUB1        0.000
     55 H          -1.2800    5.5350   22.5370 H         1 SUB1        0.000
     56 H          -1.8210   -1.5390   22.6660 H         1 SUB1        0.000
     57 H          -1.4720   -0.1440   23.7210 H         1 SUB1        0.000
     58 H           1.4120   -1.0750   21.7840 H         1 SUB1        0.000
     59 H           0.2250   -1.5480   20.5400 H         1 SUB1        0.000
     60 H          -3.5350    6.6500   19.2170 H         1 SUB1        0.000
     61 H          -3.4970    7.9690   17.9980 H         1 SUB1        0.000
     62 H          -4.6650    8.2350   20.8180 H         1 SUB1        0.000
     63 H          -5.6340    7.9280   19.3360 H         1 SUB1        0.000
     64 H          -5.5390   10.3720   19.8550 H         1 SUB1        0.000
     65 H          -4.7000   10.0090   18.3090 H         1 SUB1        0.000
     66 H          -3.4010   10.2990   21.0680 H         1 SUB1        0.000
     67 H          -3.3080   11.4850   19.7220 H         1 SUB1        0.000
     68 H          -2.0440    9.8880   18.3620 H         1 SUB1        0.000
     69 H          -1.2450   10.0880   19.9580 H         1 SUB1        0.000
@<TRIPOS>BOND
     1   15   14 1  
     2   16   15 1  
     3   16   17 2  
     4    1    2 2  
     5    1    3 2  
     6    1    5 1  
     7   14    1 1  
     8    5    6 ar 
     9    6    7 ar 
    10    7   13 ar 
    11    8    9 ar 
    12   13    8 ar 
    13    9   10 ar 
    14   11   10 ar 
    15   12   11 ar 
    16   13   12 ar 
    17   19   18 1  
    18   18   28 2  
    19   18   32 am 
    20   19   20 1  
    21   29   19 1  
    22   20   21 1  
    23   21   22 ar 
    24   22   24 ar 
    25   21   23 ar 
    26   23   25 ar 
    27   24   26 ar 
    28   25   26 ar 
    29   26   27 1  
    30   27   30 ar 
    31   27   31 ar 
    32   29   16 am 
    33   32   33 1  
    34   32   37 1  
    35   33   34 1  
    36   34   35 1  
    37   35   36 1  
    38   36   37 1  
    39   12    4 ar 
    40    5    4 ar 
    41   14   38 1  
    42   15   39 1  
    43   15   40 1  
    44    4   41 1  
    45    6   42 1  
    46    7   43 1  
    47    8   44 1  
    48    9   45 1  
    49   10   46 1  
    50   11   47 1  
    51   19   48 1  
    52   20   49 1  
    53   20   50 1  
    54   22   51 1  
    55   23   52 1  
    56   24   53 1  
    57   25   54 1  
    58   29   55 1  
    59   30   56 1  
    60   30   57 1  
    61   31   58 1  
    62   31   59 1  
    63   33   60 1  
    64   33   61 1  
    65   34   62 1  
    66   34   63 1  
    67   35   64 1  
    68   35   65 1  
    69   36   66 1  
    70   36   67 1  
    71   37   68 1  
    72   37   69 1  
@<TRIPOS>SUBSTRUCTURE
     1 SUB1        1 GROUP

