### 
### Created by X-TOOL on Tue Dec  2 13:04:54 2003
### 

@<TRIPOS>MOLECULE
1ppc_ligand.crystal
   69    72     1     0     0
SMALL
MMFF94_CHARGES


@<TRIPOS>ATOM
      1 S          -5.8270    4.7820   25.9170 S.o2      1 SUB1        1.447
      2 O1         -6.8830    5.7670   26.4350 O.2       1 SUB1       -0.650
      3 O2         -6.3850    3.3620   25.9520 O.2       1 SUB1       -0.650
      4 C1         -3.7610    3.9040   27.5800 C.ar      1 SUB1       -0.150
      5 C2         -4.3660    4.9560   26.9430 C.ar      1 SUB1       -0.009
      6 C3         -3.8740    6.2180   27.1290 C.ar      1 SUB1       -0.150
      7 C4         -2.8230    6.4310   27.9910 C.ar      1 SUB1       -0.150
      8 C5         -1.1660    5.6080   29.4710 C.ar      1 SUB1       -0.150
      9 C6         -0.5380    4.5410   30.0870 C.ar      1 SUB1       -0.150
     10 C7         -1.0030    3.2540   29.8900 C.ar      1 SUB1       -0.150
     11 C8         -2.0960    3.0180   29.0710 C.ar      1 SUB1       -0.150
     12 C9         -2.6860    4.0860   28.4240 C.ar      1 SUB1        0.000
     13 C10        -2.2320    5.3650   28.6300 C.ar      1 SUB1        0.000
     14 N          -5.5520    5.0200   24.2980 N.am      1 SUB1       -0.914
     15 CA         -4.6090    4.0870   23.7300 C.3       1 SUB1        0.417
     16 C          -3.2810    4.7140   23.3230 C.2       1 SUB1        0.569
     17 O          -2.9600    5.8630   23.6500 O.2       1 SUB1       -0.570
     18 C          -0.4280    2.9070   22.1940 C.2       1 SUB1        0.569
     19 CA         -1.2700    4.1600   21.9520 C.3       1 SUB1        0.361
     20 CB         -1.3330    4.4800   20.4500 C.3       1 SUB1        0.144
     21 CG         -2.0020    5.8060   20.1500 C.ar      1 SUB1       -0.144
     22 CD1        -3.3810    5.9010   20.0920 C.ar      1 SUB1       -0.150
     23 CD2        -1.2360    6.9410   20.0230 C.ar      1 SUB1       -0.150
     24 CE1        -3.9930    7.1200   19.8710 C.ar      1 SUB1       -0.150
     25 CE2        -1.8530    8.1550   19.7970 C.ar      1 SUB1       -0.150
     26 CZ         -3.2370    8.2680   19.7390 C.ar      1 SUB1       -0.022
     27 CF         -3.8330    9.5270   19.5790 C.cat     1 SUB1        0.731
     28 O          -0.2020    2.1160   21.2720 O.2       1 SUB1       -0.570
     29 N          -2.5950    3.9030   22.4990 N.am      1 SUB1       -0.730
     30 NG1        -5.1270    9.7230   19.8940 N.pl3     1 SUB1       -1.192
     31 NG2        -3.0670   10.5440   19.1670 N.pl3     1 SUB1       -1.192
     32 N1          0.0740    2.6870   23.4200 N.am      1 SUB1       -0.660
     33 C2          0.0190    3.6720   24.4880 C.3       1 SUB1        0.300
     34 C3         -0.7040    3.0330   25.6500 C.3       1 SUB1        0.000
     35 C4          0.1550    1.8800   26.1460 C.3       1 SUB1        0.000
     36 C5          0.3010    0.9040   24.9820 C.3       1 SUB1        0.000
     37 C6          0.9050    1.5360   23.7450 C.3       1 SUB1        0.300
     38 H          -5.9971    5.7409   23.7668 H         1 SUB1        0.420
     39 HA1        -4.4070    3.3034   24.4751 H         1 SUB1        0.000
     40 HA2        -5.0655    3.6350   22.8371 H         1 SUB1        0.000
     41 H          -4.1381    2.9011   27.4157 H         1 SUB1        0.150
     42 H          -4.3133    7.0533   26.5957 H         1 SUB1        0.150
     43 H          -2.4608    7.4375   28.1666 H         1 SUB1        0.150
     44 H          -0.8251    6.6219   29.6467 H         1 SUB1        0.150
     45 H           0.3206    4.7141   30.7256 H         1 SUB1        0.150
     46 H          -0.5088    2.4229   30.3800 H         1 SUB1        0.150
     47 H          -2.4809    2.0130   28.9406 H         1 SUB1        0.150
     48 H          -0.8185    5.0147   22.4769 H         1 SUB1        0.000
     49 H          -1.8973    3.6817   19.9458 H         1 SUB1        0.000
     50 H          -0.3067    4.5090   20.0553 H         1 SUB1        0.000
     51 H          -3.9867    5.0113   20.2211 H         1 SUB1        0.150
     52 H          -0.1563    6.8828   20.0998 H         1 SUB1        0.150
     53 H          -5.0733    7.1755   19.8008 H         1 SUB1        0.150
     54 H          -1.2436    9.0412   19.6616 H         1 SUB1        0.150
     55 H          -3.0352    3.0440   22.2375 H         1 SUB1        0.370
     56 H          -5.5517   10.6533   19.7713 H         1 SUB1        0.669
     57 H          -5.6924    8.9427   20.2577 H         1 SUB1        0.669
     58 H          -2.0783   10.3806   18.9290 H         1 SUB1        0.669
     59 H          -3.4661   11.4902   19.0878 H         1 SUB1        0.669
     60 H          -0.5274    4.5646   24.1494 H         1 SUB1        0.000
     61 H           1.0375    3.9580   24.7895 H         1 SUB1        0.000
     62 H          -1.6839    2.6566   25.3213 H         1 SUB1        0.000
     63 H          -0.8452    3.7692   26.4550 H         1 SUB1        0.000
     64 H          -0.3334    1.3832   26.9973 H         1 SUB1        0.000
     65 H           1.1435    2.2504   26.4554 H         1 SUB1        0.000
     66 H          -0.6953    0.5152   24.7248 H         1 SUB1        0.000
     67 H           0.9476    0.0734   25.3013 H         1 SUB1        0.000
     68 H           1.9370    1.8578   23.9483 H         1 SUB1        0.000
     69 H           0.9022    0.8180   22.9117 H         1 SUB1        0.000
@<TRIPOS>BOND
     1   15   14 1  
     2   16   15 1  
     3   16   17 2  
     4    1    2 2  
     5    1    3 2  
     6    1    5 1  
     7   14    1 1  
     8    5    6 ar 
     9    6    7 ar 
    10    7   13 ar 
    11    8    9 ar 
    12   13    8 ar 
    13    9   10 ar 
    14   11   10 ar 
    15   12   11 ar 
    16   13   12 ar 
    17   19   18 1  
    18   18   28 2  
    19   18   32 am 
    20   19   20 1  
    21   29   19 1  
    22   20   21 1  
    23   21   22 ar 
    24   22   24 ar 
    25   21   23 ar 
    26   23   25 ar 
    27   24   26 ar 
    28   25   26 ar 
    29   26   27 1  
    30   27   30 ar 
    31   27   31 ar 
    32   29   16 am 
    33   32   33 1  
    34   32   37 1  
    35   33   34 1  
    36   34   35 1  
    37   35   36 1  
    38   36   37 1  
    39   12    4 ar 
    40    5    4 ar 
    41   14   38 1  
    42   15   39 1  
    43   15   40 1  
    44    4   41 1  
    45    6   42 1  
    46    7   43 1  
    47    8   44 1  
    48    9   45 1  
    49   10   46 1  
    50   11   47 1  
    51   19   48 1  
    52   20   49 1  
    53   20   50 1  
    54   22   51 1  
    55   23   52 1  
    56   24   53 1  
    57   25   54 1  
    58   29   55 1  
    59   30   56 1  
    60   30   57 1  
    61   31   58 1  
    62   31   59 1  
    63   33   60 1  
    64   33   61 1  
    65   34   62 1  
    66   34   63 1  
    67   35   64 1  
    68   35   65 1  
    69   36   66 1  
    70   36   67 1  
    71   37   68 1  
    72   37   69 1  
@<TRIPOS>SUBSTRUCTURE
     1 SUB1        1 GROUP

### 
### Created by X-TOOL on Tue Dec  2 13:04:54 2003
### 

@<TRIPOS>MOLECULE
1ppc-ligand.1ppc.001
   69    72     1     0     0
SMALL
MMFF94_CHARGES


@<TRIPOS>ATOM
      1 S          -5.4880    5.1640   26.0000 S.o2      1 SUB1        1.447
      2 O1         -6.4320    6.3330   26.3090 O.2       1 SUB1       -0.650
      3 O2         -6.2170    3.8410   26.2150 O.2       1 SUB1       -0.650
      4 C1         -3.5480    4.2880   27.8100 C.ar      1 SUB1       -0.150
      5 C2         -4.0530    5.3220   27.0650 C.ar      1 SUB1       -0.009
      6 C3         -3.4770    6.5570   27.1660 C.ar      1 SUB1       -0.150
      7 C4         -2.4430    6.7690   28.0490 C.ar      1 SUB1       -0.150
      8 C5         -0.9010    5.9600   29.6560 C.ar      1 SUB1       -0.150
      9 C6         -0.3730    4.9080   30.3820 C.ar      1 SUB1       -0.150
     10 C7         -0.9240    3.6450   30.2730 C.ar      1 SUB1       -0.150
     11 C8         -2.0030    3.4170   29.4330 C.ar      1 SUB1       -0.150
     12 C9         -2.4920    4.4650   28.6780 C.ar      1 SUB1        0.000
     13 C10        -1.9530    5.7220   28.7960 C.ar      1 SUB1        0.000
     14 N          -5.1290    5.1170   24.3810 N.am      1 SUB1       -0.914
     15 CA         -4.2890    4.0040   24.0080 C.3       1 SUB1        0.417
     16 C          -2.9540    4.4100   23.3950 C.2       1 SUB1        0.569
     17 O          -2.0860    5.0170   24.0340 O.2       1 SUB1       -0.570
     18 C          -1.0530    2.9850   21.0670 C.2       1 SUB1        0.569
     19 CA         -1.7800    4.3240   21.1940 C.3       1 SUB1        0.361
     20 CB         -2.2320    4.8200   19.8110 C.3       1 SUB1        0.144
     21 CG         -2.6240    6.2840   19.8010 C.ar      1 SUB1       -0.144
     22 CD1        -1.6590    7.2710   19.8960 C.ar      1 SUB1       -0.150
     23 CD2        -3.9390    6.6340   19.6060 C.ar      1 SUB1       -0.150
     24 CE1        -2.0110    8.6060   19.8330 C.ar      1 SUB1       -0.150
     25 CE2        -4.2850    7.9700   19.5490 C.ar      1 SUB1       -0.150
     26 CZ         -3.3280    8.9730   19.6400 C.ar      1 SUB1       -0.022
     27 CF         -3.7050   10.3170   19.5080 C.cat     1 SUB1        0.731
     28 O          -1.3580    2.1880   20.1740 O.2       1 SUB1       -0.570
     29 N          -2.9140    4.1170   22.0840 N.am      1 SUB1       -0.730
     30 NG1        -4.7350   10.8180   20.2150 N.pl3     1 SUB1       -1.192
     31 NG2        -2.9740   11.1060   18.7100 N.pl3     1 SUB1       -1.192
     32 N1         -0.0670    2.6960   21.9320 N.am      1 SUB1       -0.660
     33 C2          0.4760    3.6660   22.8700 C.3       1 SUB1        0.300
     34 C3          0.3100    3.0910   24.2560 C.3       1 SUB1        0.000
     35 C4          1.1790    1.8460   24.3440 C.3       1 SUB1        0.000
     36 C5          0.6730    0.8770   23.2790 C.3       1 SUB1        0.000
     37 C6          0.6990    1.4590   21.8810 C.3       1 SUB1        0.300
     38 H          -5.4630    5.7950   23.7260 H         1 SUB1        0.420
     39 HA1        -4.0880    3.4060   24.9090 H         1 SUB1        0.000
     40 HA2        -4.8330    3.3910   23.2750 H         1 SUB1        0.000
     41 H          -3.9920    3.3030   27.7140 H         1 SUB1        0.150
     42 H          -3.8360    7.3730   26.5500 H         1 SUB1        0.150
     43 H          -2.0140    7.7590   28.1560 H         1 SUB1        0.150
     44 H          -0.4930    6.9590   29.7610 H         1 SUB1        0.150
     45 H           0.4740    5.0740   31.0380 H         1 SUB1        0.150
     46 H          -0.5090    2.8260   30.8480 H         1 SUB1        0.150
     47 H          -2.4560    2.4340   29.3710 H         1 SUB1        0.150
     48 H          -1.1030    5.0720   21.6340 H         1 SUB1        0.000
     49 H          -3.0990    4.2240   19.4920 H         1 SUB1        0.000
     50 H          -1.4060    4.6740   19.1000 H         1 SUB1        0.000
     51 H          -0.6180    6.9950   20.0210 H         1 SUB1        0.150
     52 H          -4.6990    5.8680   19.4960 H         1 SUB1        0.150
     53 H          -1.2480    9.3680   19.9360 H         1 SUB1        0.150
     54 H          -5.3270    8.2420   19.4310 H         1 SUB1        0.150
     55 H          -3.7400    3.7210   21.6810 H         1 SUB1        0.370
     56 H          -5.5950   11.1140   19.7320 H         1 SUB1        0.669
     57 H          -4.6630   10.9050   21.2380 H         1 SUB1        0.669
     58 H          -3.1770   12.1140   18.6570 H         1 SUB1        0.669
     59 H          -2.2090   10.7040   18.1500 H         1 SUB1        0.669
     60 H          -0.0720    4.6170   22.7870 H         1 SUB1        0.000
     61 H           1.5420    3.8380   22.6580 H         1 SUB1        0.000
     62 H          -0.7440    2.8260   24.4280 H         1 SUB1        0.000
     63 H           0.6300    3.8260   25.0090 H         1 SUB1        0.000
     64 H           1.0910    1.3920   25.3410 H         1 SUB1        0.000
     65 H           2.2300    2.1050   24.1500 H         1 SUB1        0.000
     66 H          -0.3630    0.6000   23.5230 H         1 SUB1        0.000
     67 H           1.3070   -0.0230   23.2950 H         1 SUB1        0.000
     68 H           1.7350    1.6660   21.5750 H         1 SUB1        0.000
     69 H           0.2400    0.7570   21.1690 H         1 SUB1        0.000
@<TRIPOS>BOND
     1   15   14 1  
     2   16   15 1  
     3   16   17 2  
     4    1    2 2  
     5    1    3 2  
     6    1    5 1  
     7   14    1 1  
     8    5    6 ar 
     9    6    7 ar 
    10    7   13 ar 
    11    8    9 ar 
    12   13    8 ar 
    13    9   10 ar 
    14   11   10 ar 
    15   12   11 ar 
    16   13   12 ar 
    17   19   18 1  
    18   18   28 2  
    19   18   32 am 
    20   19   20 1  
    21   29   19 1  
    22   20   21 1  
    23   21   22 ar 
    24   22   24 ar 
    25   21   23 ar 
    26   23   25 ar 
    27   24   26 ar 
    28   25   26 ar 
    29   26   27 1  
    30   27   30 ar 
    31   27   31 ar 
    32   29   16 am 
    33   32   33 1  
    34   32   37 1  
    35   33   34 1  
    36   34   35 1  
    37   35   36 1  
    38   36   37 1  
    39   12    4 ar 
    40    5    4 ar 
    41   14   38 1  
    42   15   39 1  
    43   15   40 1  
    44    4   41 1  
    45    6   42 1  
    46    7   43 1  
    47    8   44 1  
    48    9   45 1  
    49   10   46 1  
    50   11   47 1  
    51   19   48 1  
    52   20   49 1  
    53   20   50 1  
    54   22   51 1  
    55   23   52 1  
    56   24   53 1  
    57   25   54 1  
    58   29   55 1  
    59   30   56 1  
    60   30   57 1  
    61   31   58 1  
    62   31   59 1  
    63   33   60 1  
    64   33   61 1  
    65   34   62 1  
    66   34   63 1  
    67   35   64 1  
    68   35   65 1  
    69   36   66 1  
    70   36   67 1  
    71   37   68 1  
    72   37   69 1  
@<TRIPOS>SUBSTRUCTURE
     1 SUB1        1 GROUP

### 
### Created by X-TOOL on Tue Dec  2 13:04:54 2003
### 

@<TRIPOS>MOLECULE
1ppc-ligand.1ppc.002
   69    72     1     0     0
SMALL
MMFF94_CHARGES


@<TRIPOS>ATOM
      1 S          -3.8500    4.1470   25.8340 S.o2      1 SUB1        1.447
      2 O1         -5.0360    3.2740   26.2640 O.2       1 SUB1       -0.650
      3 O2         -2.7240    3.2620   25.3040 O.2       1 SUB1       -0.650
      4 C1         -2.1800    5.8480   27.2900 C.ar      1 SUB1       -0.150
      5 C2         -3.3350    5.1110   27.2560 C.ar      1 SUB1       -0.009
      6 C3         -4.1210    5.0550   28.3730 C.ar      1 SUB1       -0.150
      7 C4         -3.7250    5.6830   29.5310 C.ar      1 SUB1       -0.150
      8 C5         -2.1980    7.0500   30.7210 C.ar      1 SUB1       -0.150
      9 C6         -1.0490    7.8190   30.7420 C.ar      1 SUB1       -0.150
     10 C7         -0.2540    7.9110   29.6150 C.ar      1 SUB1       -0.150
     11 C8         -0.6020    7.2410   28.4520 C.ar      1 SUB1       -0.150
     12 C9         -1.7760    6.5140   28.4280 C.ar      1 SUB1        0.000
     13 C10        -2.5580    6.4120   29.5520 C.ar      1 SUB1        0.000
     14 N          -4.2480    5.0570   24.5050 N.am      1 SUB1       -0.914
     15 CA         -3.1570    5.8610   24.0090 C.3       1 SUB1        0.417
     16 C          -3.2020    6.1140   22.5070 C.2       1 SUB1        0.569
     17 O          -4.2470    6.4070   21.9130 O.2       1 SUB1       -0.570
     18 C          -1.3960    7.5400   20.3190 C.2       1 SUB1        0.569
     19 CA         -1.6760    6.0520   20.5320 C.3       1 SUB1        0.361
     20 CB         -0.4520    5.2140   20.1300 C.3       1 SUB1        0.144
     21 CG         -0.5130    3.7870   20.6350 C.ar      1 SUB1       -0.144
     22 CD1        -1.0940    2.7930   19.8670 C.ar      1 SUB1       -0.150
     23 CD2         0.0910    3.4600   21.8260 C.ar      1 SUB1       -0.150
     24 CE1        -1.1030    1.4820   20.3040 C.ar      1 SUB1       -0.150
     25 CE2         0.0740    2.1490   22.2600 C.ar      1 SUB1       -0.150
     26 CZ         -0.5020    1.1390   21.4990 C.ar      1 SUB1       -0.022
     27 CF         -0.4390   -0.1920   21.9350 C.cat     1 SUB1        0.731
     28 O          -0.3260    8.0350   20.6890 O.2       1 SUB1       -0.570
     29 N          -2.0080    5.8710   21.9390 N.am      1 SUB1       -0.730
     30 NG1        -1.3130   -0.6620   22.8450 N.pl3     1 SUB1       -1.192
     31 NG2         0.4690   -1.0010   21.3770 N.pl3     1 SUB1       -1.192
     32 N1         -2.3240    8.2960   19.7120 N.am      1 SUB1       -0.660
     33 C2         -3.5070    7.7410   19.0740 C.3       1 SUB1        0.300
     34 C3         -4.7100    8.3790   19.7280 C.3       1 SUB1        0.000
     35 C4         -4.6770    9.8630   19.3980 C.3       1 SUB1        0.000
     36 C5         -3.3770   10.4160   19.9750 C.3       1 SUB1        0.000
     37 C6         -2.1430    9.7160   19.4440 C.3       1 SUB1        0.300
     38 H          -5.1560    5.0490   24.0870 H         1 SUB1        0.420
     39 HA1        -3.1820    6.8330   24.5240 H         1 SUB1        0.000
     40 HA2        -2.2130    5.3470   24.2440 H         1 SUB1        0.000
     41 H          -1.5670    5.9100   26.3980 H         1 SUB1        0.150
     42 H          -5.0600    4.5140   28.3460 H         1 SUB1        0.150
     43 H          -4.3310    5.6030   30.4270 H         1 SUB1        0.150
     44 H          -2.8080    6.9490   31.6120 H         1 SUB1        0.150
     45 H          -0.7710    8.3510   31.6450 H         1 SUB1        0.150
     46 H           0.6470    8.5110   29.6400 H         1 SUB1        0.150
     47 H           0.0370    7.2870   27.5780 H         1 SUB1        0.150
     48 H          -2.5330    5.7450   19.9130 H         1 SUB1        0.000
     49 H           0.4490    5.6920   20.5420 H         1 SUB1        0.000
     50 H          -0.3870    5.1940   19.0330 H         1 SUB1        0.000
     51 H          -1.5450    3.0450   18.9140 H         1 SUB1        0.150
     52 H           0.5780    4.2250   22.4210 H         1 SUB1        0.150
     53 H          -1.5850    0.7190   19.7040 H         1 SUB1        0.150
     54 H           0.5200    1.9020   23.2160 H         1 SUB1        0.150
     55 H          -1.2800    5.5350   22.5370 H         1 SUB1        0.370
     56 H          -1.8210   -1.5390   22.6660 H         1 SUB1        0.669
     57 H          -1.4720   -0.1440   23.7210 H         1 SUB1        0.669
     58 H           1.4120   -1.0750   21.7840 H         1 SUB1        0.669
     59 H           0.2250   -1.5480   20.5400 H         1 SUB1        0.669
     60 H          -3.5350    6.6500   19.2170 H         1 SUB1        0.000
     61 H          -3.4970    7.9690   17.9980 H         1 SUB1        0.000
     62 H          -4.6650    8.2350   20.8180 H         1 SUB1        0.000
     63 H          -5.6340    7.9280   19.3360 H         1 SUB1        0.000
     64 H          -5.5390   10.3720   19.8550 H         1 SUB1        0.000
     65 H          -4.7000   10.0090   18.3090 H         1 SUB1        0.000
     66 H          -3.4010   10.2990   21.0680 H         1 SUB1        0.000
     67 H          -3.3080   11.4850   19.7220 H         1 SUB1        0.000
     68 H          -2.0440    9.8880   18.3620 H         1 SUB1        0.000
     69 H          -1.2450   10.0880   19.9580 H         1 SUB1        0.000
@<TRIPOS>BOND
     1   15   14 1  
     2   16   15 1  
     3   16   17 2  
     4    1    2 2  
     5    1    3 2  
     6    1    5 1  
     7   14    1 1  
     8    5    6 ar 
     9    6    7 ar 
    10    7   13 ar 
    11    8    9 ar 
    12   13    8 ar 
    13    9   10 ar 
    14   11   10 ar 
    15   12   11 ar 
    16   13   12 ar 
    17   19   18 1  
    18   18   28 2  
    19   18   32 am 
    20   19   20 1  
    21   29   19 1  
    22   20   21 1  
    23   21   22 ar 
    24   22   24 ar 
    25   21   23 ar 
    26   23   25 ar 
    27   24   26 ar 
    28   25   26 ar 
    29   26   27 1  
    30   27   30 ar 
    31   27   31 ar 
    32   29   16 am 
    33   32   33 1  
    34   32   37 1  
    35   33   34 1  
    36   34   35 1  
    37   35   36 1  
    38   36   37 1  
    39   12    4 ar 
    40    5    4 ar 
    41   14   38 1  
    42   15   39 1  
    43   15   40 1  
    44    4   41 1  
    45    6   42 1  
    46    7   43 1  
    47    8   44 1  
    48    9   45 1  
    49   10   46 1  
    50   11   47 1  
    51   19   48 1  
    52   20   49 1  
    53   20   50 1  
    54   22   51 1  
    55   23   52 1  
    56   24   53 1  
    57   25   54 1  
    58   29   55 1  
    59   30   56 1  
    60   30   57 1  
    61   31   58 1  
    62   31   59 1  
    63   33   60 1  
    64   33   61 1  
    65   34   62 1  
    66   34   63 1  
    67   35   64 1  
    68   35   65 1  
    69   36   66 1  
    70   36   67 1  
    71   37   68 1  
    72   37   69 1  
@<TRIPOS>SUBSTRUCTURE
     1 SUB1        1 GROUP

### 
### Created by X-TOOL on Tue Dec  2 13:04:54 2003
### 

@<TRIPOS>MOLECULE
1ppc-ligand.1ppc.003
   69    72     1     0     0
SMALL
MMFF94_CHARGES


@<TRIPOS>ATOM
      1 S          -6.6550    3.5830   25.9300 S.o2      1 SUB1        1.447
      2 O1         -7.7930    4.2890   26.6790 O.2       1 SUB1       -0.650
      3 O2         -6.7820    2.0720   26.1050 O.2       1 SUB1       -0.650
      4 C1         -4.1860    3.4240   27.2270 C.ar      1 SUB1       -0.150
      5 C2         -5.1040    4.2080   26.5770 C.ar      1 SUB1       -0.009
      6 C3         -4.8630    5.5480   26.4520 C.ar      1 SUB1       -0.150
      7 C4         -3.7430    6.1070   27.0230 C.ar      1 SUB1       -0.150
      8 C5         -1.7120    5.8930   28.2230 C.ar      1 SUB1       -0.150
      9 C6         -0.7730    5.0950   28.8510 C.ar      1 SUB1       -0.150
     10 C7         -0.9840    3.7330   28.9640 C.ar      1 SUB1       -0.150
     11 C8         -2.1320    3.1540   28.4470 C.ar      1 SUB1       -0.150
     12 C9         -3.0400    3.9540   27.7810 C.ar      1 SUB1        0.000
     13 C10        -2.8360    5.3070   27.6800 C.ar      1 SUB1        0.000
     14 N          -6.8320    3.7710   24.2900 N.am      1 SUB1       -0.914
     15 CA         -5.8250    3.0820   23.5200 C.3       1 SUB1        0.417
     16 C          -4.6610    3.9640   23.0860 C.2       1 SUB1        0.569
     17 O          -4.3660    5.0120   23.6730 O.2       1 SUB1       -0.570
     18 C          -1.9110    2.9560   21.1300 C.2       1 SUB1        0.569
     19 CA         -2.9430    4.0740   21.2780 C.3       1 SUB1        0.361
     20 CB         -3.3150    4.6440   19.9000 C.3       1 SUB1        0.144
     21 CG         -3.4020    6.1570   19.8840 C.ar      1 SUB1       -0.144
     22 CD1        -2.2560    6.9270   19.8000 C.ar      1 SUB1       -0.150
     23 CD2        -4.6350    6.7670   19.8640 C.ar      1 SUB1       -0.150
     24 CE1        -2.3380    8.3050   19.7320 C.ar      1 SUB1       -0.150
     25 CE2        -4.7100    8.1440   19.8010 C.ar      1 SUB1       -0.150
     26 CZ         -3.5680    8.9310   19.7120 C.ar      1 SUB1       -0.022
     27 CF         -3.6830   10.3220   19.5790 C.cat     1 SUB1        0.731
     28 O          -1.6940    2.4450   20.0260 O.2       1 SUB1       -0.570
     29 N          -4.1020    3.5060   21.9520 N.am      1 SUB1       -0.730
     30 NG1        -2.8360   11.0120   18.7930 N.pl3     1 SUB1       -1.192
     31 NG2        -4.6960   10.9380   20.2000 N.pl3     1 SUB1       -1.192
     32 N1         -1.2340    2.5470   22.2150 N.am      1 SUB1       -0.660
     33 C2         -1.2910    3.2380   23.4930 C.3       1 SUB1        0.300
     34 C3         -1.7680    2.2400   24.5220 C.3       1 SUB1        0.000
     35 C4         -0.7010    1.1620   24.6420 C.3       1 SUB1        0.000
     36 C5         -0.5670    0.5160   23.2650 C.3       1 SUB1        0.000
     37 C6         -0.2170    1.5050   22.1730 C.3       1 SUB1        0.300
     38 H          -7.5650    4.3100   23.8770 H         1 SUB1        0.420
     39 HA1        -5.4250    2.2590   24.1300 H         1 SUB1        0.000
     40 HA2        -6.3010    2.6710   22.6170 H         1 SUB1        0.000
     41 H          -4.3670    2.3580   27.3090 H         1 SUB1        0.150
     42 H          -5.5570    6.1720   25.9000 H         1 SUB1        0.150
     43 H          -3.5760    7.1760   26.9560 H         1 SUB1        0.150
     44 H          -1.5660    6.9660   28.1600 H         1 SUB1        0.150
     45 H           0.1310    5.5380   29.2550 H         1 SUB1        0.150
     46 H          -0.2470    3.1140   29.4610 H         1 SUB1        0.150
     47 H          -2.3140    2.0910   28.5630 H         1 SUB1        0.150
     48 H          -2.5230    4.8840   21.8940 H         1 SUB1        0.000
     49 H          -4.2910    4.2350   19.6050 H         1 SUB1        0.000
     50 H          -2.5510    4.3310   19.1740 H         1 SUB1        0.000
     51 H          -1.2850    6.4450   19.7870 H         1 SUB1        0.150
     52 H          -5.5400    6.1710   19.8960 H         1 SUB1        0.150
     53 H          -1.4310    8.8960   19.6930 H         1 SUB1        0.150
     54 H          -5.6820    8.6220   19.8210 H         1 SUB1        0.150
     55 H          -4.5220    2.7010   21.5320 H         1 SUB1        0.370
     56 H          -1.9090   10.6230   18.5670 H         1 SUB1        0.669
     57 H          -3.1140   11.9300   18.4170 H         1 SUB1        0.669
     58 H          -5.4560   11.3630   19.6500 H         1 SUB1        0.669
     59 H          -4.7150   10.9880   21.2280 H         1 SUB1        0.669
     60 H          -1.9950    4.0820   23.4330 H         1 SUB1        0.000
     61 H          -0.2930    3.6120   23.7640 H         1 SUB1        0.000
     62 H          -2.7190    1.7920   24.1980 H         1 SUB1        0.000
     63 H          -1.9080    2.7380   25.4920 H         1 SUB1        0.000
     64 H          -1.0050    0.4100   25.3840 H         1 SUB1        0.000
     65 H           0.2570    1.6090   24.9440 H         1 SUB1        0.000
     66 H          -1.5240    0.0370   23.0100 H         1 SUB1        0.000
     67 H           0.2240   -0.2470   23.3120 H         1 SUB1        0.000
     68 H           0.7780    1.9380   22.3570 H         1 SUB1        0.000
     69 H          -0.2240    1.0070   21.1930 H         1 SUB1        0.000
@<TRIPOS>BOND
     1   15   14 1  
     2   16   15 1  
     3   16   17 2  
     4    1    2 2  
     5    1    3 2  
     6    1    5 1  
     7   14    1 1  
     8    5    6 ar 
     9    6    7 ar 
    10    7   13 ar 
    11    8    9 ar 
    12   13    8 ar 
    13    9   10 ar 
    14   11   10 ar 
    15   12   11 ar 
    16   13   12 ar 
    17   19   18 1  
    18   18   28 2  
    19   18   32 am 
    20   19   20 1  
    21   29   19 1  
    22   20   21 1  
    23   21   22 ar 
    24   22   24 ar 
    25   21   23 ar 
    26   23   25 ar 
    27   24   26 ar 
    28   25   26 ar 
    29   26   27 1  
    30   27   30 ar 
    31   27   31 ar 
    32   29   16 am 
    33   32   33 1  
    34   32   37 1  
    35   33   34 1  
    36   34   35 1  
    37   35   36 1  
    38   36   37 1  
    39   12    4 ar 
    40    5    4 ar 
    41   14   38 1  
    42   15   39 1  
    43   15   40 1  
    44    4   41 1  
    45    6   42 1  
    46    7   43 1  
    47    8   44 1  
    48    9   45 1  
    49   10   46 1  
    50   11   47 1  
    51   19   48 1  
    52   20   49 1  
    53   20   50 1  
    54   22   51 1  
    55   23   52 1  
    56   24   53 1  
    57   25   54 1  
    58   29   55 1  
    59   30   56 1  
    60   30   57 1  
    61   31   58 1  
    62   31   59 1  
    63   33   60 1  
    64   33   61 1  
    65   34   62 1  
    66   34   63 1  
    67   35   64 1  
    68   35   65 1  
    69   36   66 1  
    70   36   67 1  
    71   37   68 1  
    72   37   69 1  
@<TRIPOS>SUBSTRUCTURE
     1 SUB1        1 GROUP

### 
### Created by X-TOOL on Tue Dec  2 13:04:54 2003
### 

@<TRIPOS>MOLECULE
1ppc-ligand.1ppc.004
   69    72     1     0     0
SMALL
MMFF94_CHARGES


@<TRIPOS>ATOM
      1 S          -6.6470    3.8310   26.8920 S.o2      1 SUB1        1.447
      2 O1         -7.8930    4.6050   27.3430 O.2       1 SUB1       -0.650
      3 O2         -6.9770    2.3450   26.7750 O.2       1 SUB1       -0.650
      4 C1         -4.5720    3.1490   28.6330 C.ar      1 SUB1       -0.150
      5 C2         -5.3480    4.1390   28.0900 C.ar      1 SUB1       -0.009
      6 C3         -5.1710    5.4280   28.5080 C.ar      1 SUB1       -0.150
      7 C4         -4.2660    5.7140   29.5040 C.ar      1 SUB1       -0.150
      8 C5         -2.5850    5.0290   31.0280 C.ar      1 SUB1       -0.150
      9 C6         -1.7820    4.0330   31.5510 C.ar      1 SUB1       -0.150
     10 C7         -1.9260    2.7270   31.1210 C.ar      1 SUB1       -0.150
     11 C8         -2.8700    2.4020   30.1590 C.ar      1 SUB1       -0.150
     12 C9         -3.6350    3.4130   29.6100 C.ar      1 SUB1        0.000
     13 C10        -3.5000    4.7070   30.0460 C.ar      1 SUB1        0.000
     14 N          -6.2430    4.2320   25.3330 N.am      1 SUB1       -0.914
     15 CA         -5.1120    3.4970   24.8230 C.3       1 SUB1        0.417
     16 C          -4.0310    4.3710   24.1990 C.2       1 SUB1        0.569
     17 O          -3.5760    5.3730   24.7650 O.2       1 SUB1       -0.570
     18 C          -1.6580    3.4760   21.8590 C.2       1 SUB1        0.569
     19 CA         -2.7310    4.5430   22.0750 C.3       1 SUB1        0.361
     20 CB         -3.3300    4.9790   20.7290 C.3       1 SUB1        0.144
     21 CG         -3.3410    6.4820   20.5390 C.ar      1 SUB1       -0.144
     22 CD1        -2.1710    7.1650   20.2580 C.ar      1 SUB1       -0.150
     23 CD2        -4.5370    7.1610   20.5580 C.ar      1 SUB1       -0.150
     24 CE1        -2.1890    8.5280   20.0320 C.ar      1 SUB1       -0.150
     25 CE2        -4.5480    8.5240   20.3370 C.ar      1 SUB1       -0.150
     26 CZ         -3.3810    9.2240   20.0510 C.ar      1 SUB1       -0.022
     27 CF         -3.4380   10.5950   19.7620 C.cat     1 SUB1        0.731
     28 O          -1.8050    2.6050   20.9940 O.2       1 SUB1       -0.570
     29 N          -3.7440    3.9680   22.9490 N.am      1 SUB1       -0.730
     30 NG1        -4.4770   11.3450   20.1740 N.pl3     1 SUB1       -1.192
     31 NG2        -2.4020   11.1520   19.1230 N.pl3     1 SUB1       -1.192
     32 N1         -0.5470    3.5070   22.6140 N.am      1 SUB1       -0.660
     33 C2         -0.2210    4.6130   23.4990 C.3       1 SUB1        0.300
     34 C3         -0.0670    4.0430   24.8890 C.3       1 SUB1        0.000
     35 C4          1.1350    3.1120   24.8720 C.3       1 SUB1        0.000
     36 C5          0.8300    2.0140   23.8560 C.3       1 SUB1        0.000
     37 C6          0.5400    2.5490   22.4690 C.3       1 SUB1        0.300
     38 H          -6.7370    4.9190   24.7990 H         1 SUB1        0.420
     39 HA1        -4.6630    2.9330   25.6540 H         1 SUB1        0.000
     40 HA2        -5.4720    2.7950   24.0570 H         1 SUB1        0.000
     41 H          -4.6980    2.1300   28.2860 H         1 SUB1        0.150
     42 H          -5.7450    6.2270   28.0550 H         1 SUB1        0.150
     43 H          -4.1560    6.7320   29.8620 H         1 SUB1        0.150
     44 H          -2.4980    6.0490   31.3840 H         1 SUB1        0.150
     45 H          -1.0370    4.2760   32.3000 H         1 SUB1        0.150
     46 H          -1.2960    1.9500   31.5390 H         1 SUB1        0.150
     47 H          -3.0060    1.3740   29.8440 H         1 SUB1        0.150
     48 H          -2.2830    5.4220   22.5640 H         1 SUB1        0.000
     49 H          -4.3650    4.6120   20.6710 H         1 SUB1        0.000
     50 H          -2.7370    4.5290   19.9190 H         1 SUB1        0.000
     51 H          -1.2310    6.6250   20.2140 H         1 SUB1        0.150
     52 H          -5.4640    6.6310   20.7440 H         1 SUB1        0.150
     53 H          -1.2610    9.0540   19.8400 H         1 SUB1        0.150
     54 H          -5.4870    9.0610   20.3890 H         1 SUB1        0.150
     55 H          -4.2750    3.2030   22.5850 H         1 SUB1        0.370
     56 H          -5.3640   11.3280   19.6500 H         1 SUB1        0.669
     57 H          -4.3850   11.9350   21.0120 H         1 SUB1        0.669
     58 H          -1.5200   10.6300   19.0180 H         1 SUB1        0.669
     59 H          -2.4860   12.1020   18.7370 H         1 SUB1        0.669
     60 H          -1.0300    5.3590   23.4840 H         1 SUB1        0.000
     61 H           0.7190    5.0860   23.1790 H         1 SUB1        0.000
     62 H          -0.9720    3.4840   25.1680 H         1 SUB1        0.000
     63 H           0.0990    4.8560   25.6120 H         1 SUB1        0.000
     64 H           1.2880    2.6720   25.8690 H         1 SUB1        0.000
     65 H           2.0370    3.6640   24.5730 H         1 SUB1        0.000
     66 H          -0.0470    1.4500   24.2040 H         1 SUB1        0.000
     67 H           1.6990    1.3420   23.7970 H         1 SUB1        0.000
     68 H           1.4320    3.0460   22.0590 H         1 SUB1        0.000
     69 H           0.2380    1.7290   21.8020 H         1 SUB1        0.000
@<TRIPOS>BOND
     1   15   14 1  
     2   16   15 1  
     3   16   17 2  
     4    1    2 2  
     5    1    3 2  
     6    1    5 1  
     7   14    1 1  
     8    5    6 ar 
     9    6    7 ar 
    10    7   13 ar 
    11    8    9 ar 
    12   13    8 ar 
    13    9   10 ar 
    14   11   10 ar 
    15   12   11 ar 
    16   13   12 ar 
    17   19   18 1  
    18   18   28 2  
    19   18   32 am 
    20   19   20 1  
    21   29   19 1  
    22   20   21 1  
    23   21   22 ar 
    24   22   24 ar 
    25   21   23 ar 
    26   23   25 ar 
    27   24   26 ar 
    28   25   26 ar 
    29   26   27 1  
    30   27   30 ar 
    31   27   31 ar 
    32   29   16 am 
    33   32   33 1  
    34   32   37 1  
    35   33   34 1  
    36   34   35 1  
    37   35   36 1  
    38   36   37 1  
    39   12    4 ar 
    40    5    4 ar 
    41   14   38 1  
    42   15   39 1  
    43   15   40 1  
    44    4   41 1  
    45    6   42 1  
    46    7   43 1  
    47    8   44 1  
    48    9   45 1  
    49   10   46 1  
    50   11   47 1  
    51   19   48 1  
    52   20   49 1  
    53   20   50 1  
    54   22   51 1  
    55   23   52 1  
    56   24   53 1  
    57   25   54 1  
    58   29   55 1  
    59   30   56 1  
    60   30   57 1  
    61   31   58 1  
    62   31   59 1  
    63   33   60 1  
    64   33   61 1  
    65   34   62 1  
    66   34   63 1  
    67   35   64 1  
    68   35   65 1  
    69   36   66 1  
    70   36   67 1  
    71   37   68 1  
    72   37   69 1  
@<TRIPOS>SUBSTRUCTURE
     1 SUB1        1 GROUP

### 
### Created by X-TOOL on Tue Dec  2 13:04:54 2003
### 

@<TRIPOS>MOLECULE
1ppc-ligand.1ppc.005
   69    72     1     0     0
SMALL
MMFF94_CHARGES


@<TRIPOS>ATOM
      1 S          -4.7890    2.3220   25.0710 S.o2      1 SUB1        1.447
      2 O1         -5.4770    0.9550   25.1690 O.2       1 SUB1       -0.650
      3 O2         -3.7540    2.2990   23.9490 O.2       1 SUB1       -0.650
      4 C1         -4.7350    2.6230   27.8480 C.ar      1 SUB1       -0.150
      5 C2         -4.0450    2.6760   26.6640 C.ar      1 SUB1       -0.009
      6 C3         -2.7350    3.0670   26.6750 C.ar      1 SUB1       -0.150
      7 C4         -2.1390    3.4570   27.8520 C.ar      1 SUB1       -0.150
      8 C5         -2.2150    3.7820   30.1970 C.ar      1 SUB1       -0.150
      9 C6         -2.9040    3.6970   31.3940 C.ar      1 SUB1       -0.150
     10 C7         -4.2210    3.2780   31.4080 C.ar      1 SUB1       -0.150
     11 C8         -4.8630    2.9330   30.2280 C.ar      1 SUB1       -0.150
     12 C9         -4.1510    2.9770   29.0460 C.ar      1 SUB1        0.000
     13 C10        -2.8470    3.4060   29.0310 C.ar      1 SUB1        0.000
     14 N          -5.8590    3.4780   24.5490 N.am      1 SUB1       -0.914
     15 CA         -5.2620    4.7810   24.3780 C.3       1 SUB1        0.417
     16 C          -5.5020    5.4000   23.0070 C.2       1 SUB1        0.569
     17 O          -6.6030    5.8440   22.6600 O.2       1 SUB1       -0.570
     18 C          -3.1300    6.8350   20.9030 C.2       1 SUB1        0.569
     19 CA         -4.2670    5.8130   20.8770 C.3       1 SUB1        0.361
     20 CB         -3.9570    4.6930   19.8720 C.3       1 SUB1        0.144
     21 CG         -2.8440    3.7720   20.3280 C.ar      1 SUB1       -0.144
     22 CD1        -3.1340    2.5750   20.9570 C.ar      1 SUB1       -0.150
     23 CD2        -1.5370    4.0880   20.0360 C.ar      1 SUB1       -0.150
     24 CE1        -2.1210    1.7110   21.3260 C.ar      1 SUB1       -0.150
     25 CE2        -0.5290    3.2230   20.4120 C.ar      1 SUB1       -0.150
     26 CZ         -0.8050    2.0150   21.0410 C.ar      1 SUB1       -0.022
     27 CF          0.2380    1.1280   21.3460 C.cat     1 SUB1        0.731
     28 O          -2.1490    6.6630   21.6340 O.2       1 SUB1       -0.570
     29 N          -4.4100    5.2920   22.2300 N.am      1 SUB1       -0.730
     30 NG1         0.6920    1.0040   22.6060 N.pl3     1 SUB1       -1.192
     31 NG2         0.7250    0.3600   20.3630 N.pl3     1 SUB1       -1.192
     32 N1         -3.2060    7.9140   20.1070 N.am      1 SUB1       -0.660
     33 C2         -4.2240    8.0720   19.0810 C.3       1 SUB1        0.300
     34 C3         -4.9660    9.3540   19.3790 C.3       1 SUB1        0.000
     35 C4         -3.9810   10.5010   19.2160 C.3       1 SUB1        0.000
     36 C5         -2.8570   10.2670   20.2210 C.3       1 SUB1        0.000
     37 C6         -2.1660    8.9310   20.0420 C.3       1 SUB1        0.300
     38 H          -6.8240    3.2890   24.3700 H         1 SUB1        0.420
     39 HA1        -5.6820    5.4550   25.1400 H         1 SUB1        0.000
     40 HA2        -4.1770    4.6870   24.5300 H         1 SUB1        0.000
     41 H          -5.7670    2.2930   27.8420 H         1 SUB1        0.150
     42 H          -2.1650    3.0690   25.7540 H         1 SUB1        0.150
     43 H          -1.1110    3.8040   27.8510 H         1 SUB1        0.150
     44 H          -1.1920    4.1410   30.1770 H         1 SUB1        0.150
     45 H          -2.4100    3.9600   32.3230 H         1 SUB1        0.150
     46 H          -4.7570    3.2180   32.3480 H         1 SUB1        0.150
     47 H          -5.9050    2.6350   30.2340 H         1 SUB1        0.150
     48 H          -5.2020    6.3100   20.5770 H         1 SUB1        0.000
     49 H          -3.6620    5.1520   18.9170 H         1 SUB1        0.000
     50 H          -4.8670    4.0940   19.7240 H         1 SUB1        0.000
     51 H          -4.1660    2.3120   21.1620 H         1 SUB1        0.150
     52 H          -1.3010    5.0080   19.5140 H         1 SUB1        0.150
     53 H          -2.3620    0.7890   21.8420 H         1 SUB1        0.150
     54 H           0.5010    3.4920   20.2110 H         1 SUB1        0.150
     55 H          -3.6240    4.8090   22.6150 H         1 SUB1        0.370
     56 H           0.2220    1.5020   23.3750 H         1 SUB1        0.669
     57 H           1.5110    0.4110   22.8020 H         1 SUB1        0.669
     58 H           0.2870   -0.5480   20.1540 H         1 SUB1        0.669
     59 H           1.5380    0.6780   19.8170 H         1 SUB1        0.669
     60 H          -4.9190    7.2200   19.1050 H         1 SUB1        0.000
     61 H          -3.7520    8.1320   18.0890 H         1 SUB1        0.000
     62 H          -5.3510    9.3330   20.4090 H         1 SUB1        0.000
     63 H          -5.8030    9.4750   18.6770 H         1 SUB1        0.000
     64 H          -4.4790   11.4600   19.4230 H         1 SUB1        0.000
     65 H          -3.5780   10.5110   18.1930 H         1 SUB1        0.000
     66 H          -3.2800   10.3080   21.2350 H         1 SUB1        0.000
     67 H          -2.1090   11.0650   20.1030 H         1 SUB1        0.000
     68 H          -1.6580    8.8930   19.0680 H         1 SUB1        0.000
     69 H          -1.4310    8.7740   20.8450 H         1 SUB1        0.000
@<TRIPOS>BOND
     1   15   14 1  
     2   16   15 1  
     3   16   17 2  
     4    1    2 2  
     5    1    3 2  
     6    1    5 1  
     7   14    1 1  
     8    5    6 ar 
     9    6    7 ar 
    10    7   13 ar 
    11    8    9 ar 
    12   13    8 ar 
    13    9   10 ar 
    14   11   10 ar 
    15   12   11 ar 
    16   13   12 ar 
    17   19   18 1  
    18   18   28 2  
    19   18   32 am 
    20   19   20 1  
    21   29   19 1  
    22   20   21 1  
    23   21   22 ar 
    24   22   24 ar 
    25   21   23 ar 
    26   23   25 ar 
    27   24   26 ar 
    28   25   26 ar 
    29   26   27 1  
    30   27   30 ar 
    31   27   31 ar 
    32   29   16 am 
    33   32   33 1  
    34   32   37 1  
    35   33   34 1  
    36   34   35 1  
    37   35   36 1  
    38   36   37 1  
    39   12    4 ar 
    40    5    4 ar 
    41   14   38 1  
    42   15   39 1  
    43   15   40 1  
    44    4   41 1  
    45    6   42 1  
    46    7   43 1  
    47    8   44 1  
    48    9   45 1  
    49   10   46 1  
    50   11   47 1  
    51   19   48 1  
    52   20   49 1  
    53   20   50 1  
    54   22   51 1  
    55   23   52 1  
    56   24   53 1  
    57   25   54 1  
    58   29   55 1  
    59   30   56 1  
    60   30   57 1  
    61   31   58 1  
    62   31   59 1  
    63   33   60 1  
    64   33   61 1  
    65   34   62 1  
    66   34   63 1  
    67   35   64 1  
    68   35   65 1  
    69   36   66 1  
    70   36   67 1  
    71   37   68 1  
    72   37   69 1  
@<TRIPOS>SUBSTRUCTURE
     1 SUB1        1 GROUP

### 
### Created by X-TOOL on Tue Dec  2 13:04:54 2003
### 

@<TRIPOS>MOLECULE
1ppc-ligand.1ppc.006
   69    72     1     0     0
SMALL
MMFF94_CHARGES


@<TRIPOS>ATOM
      1 S          -7.0080    4.2160   27.2060 S.o2      1 SUB1        1.447
      2 O1         -7.9680    5.4070   27.3130 O.2       1 SUB1       -0.650
      3 O2         -7.6260    2.9930   27.8770 O.2       1 SUB1       -0.650
      4 C1         -4.4370    3.8110   28.2220 C.ar      1 SUB1       -0.150
      5 C2         -5.4570    4.6920   27.9710 C.ar      1 SUB1       -0.009
      6 C3         -5.3220    5.9940   28.3630 C.ar      1 SUB1       -0.150
      7 C4         -4.2020    6.3970   29.0530 C.ar      1 SUB1       -0.150
      8 C5         -2.0700    5.9370   29.9800 C.ar      1 SUB1       -0.150
      9 C6         -1.0300    5.0540   30.2030 C.ar      1 SUB1       -0.150
     10 C7         -1.1350    3.7390   29.7900 C.ar      1 SUB1       -0.150
     11 C8         -2.2770    3.2930   29.1430 C.ar      1 SUB1       -0.150
     12 C9         -3.2900    4.1960   28.8830 C.ar      1 SUB1        0.000
     13 C10        -3.1910    5.4980   29.3060 C.ar      1 SUB1        0.000
     14 N          -6.8630    3.7240   25.6270 N.am      1 SUB1       -0.914
     15 CA         -6.0170    2.5670   25.4590 C.3       1 SUB1        0.417
     16 C          -5.1310    2.6200   24.2200 C.2       1 SUB1        0.569
     17 O          -5.2670    1.8370   23.2720 O.2       1 SUB1       -0.570
     18 C          -2.1070    2.7670   23.3590 C.2       1 SUB1        0.569
     19 CA         -3.1560    3.8800   23.3610 C.3       1 SUB1        0.361
     20 CB         -3.7840    4.0260   21.9650 C.3       1 SUB1        0.144
     21 CG         -3.6550    5.4240   21.3960 C.ar      1 SUB1       -0.144
     22 CD1        -2.6430    5.7290   20.5030 C.ar      1 SUB1       -0.150
     23 CD2        -4.6030    6.3720   21.7000 C.ar      1 SUB1       -0.150
     24 CE1        -2.5570    6.9890   19.9420 C.ar      1 SUB1       -0.150
     25 CE2        -4.5080    7.6310   21.1410 C.ar      1 SUB1       -0.150
     26 CZ         -3.5000    7.9530   20.2400 C.ar      1 SUB1       -0.022
     27 CF         -3.4750    9.2180   19.6360 C.cat     1 SUB1        0.731
     28 O          -2.4510    1.5830   23.2910 O.2       1 SUB1       -0.570
     29 N          -4.1540    3.5320   24.3620 N.am      1 SUB1       -0.730
     30 NG1        -4.5840    9.7400   19.0810 N.pl3     1 SUB1       -1.192
     31 NG2        -2.3370    9.9210   19.6840 N.pl3     1 SUB1       -1.192
     32 N1         -0.8070    3.0980   23.4170 N.am      1 SUB1       -0.660
     33 C2         -0.3300    4.4660   23.2930 C.3       1 SUB1        0.300
     34 C3          0.4580    4.7810   24.5430 C.3       1 SUB1        0.000
     35 C4          1.6820    3.8770   24.5520 C.3       1 SUB1        0.000
     36 C5          1.1700    2.4400   24.5690 C.3       1 SUB1        0.000
     37 C6          0.2660    2.1140   23.3990 C.3       1 SUB1        0.300
     38 H          -7.3190    4.1860   24.8660 H         1 SUB1        0.420
     39 HA1        -5.3700    2.4810   26.3440 H         1 SUB1        0.000
     40 HA2        -6.6590    1.6770   25.3860 H         1 SUB1        0.000
     41 H          -4.5350    2.7830   27.8920 H         1 SUB1        0.150
     42 H          -6.1000    6.7120   28.1310 H         1 SUB1        0.150
     43 H          -4.1160    7.4210   29.3980 H         1 SUB1        0.150
     44 H          -2.0060    6.9610   30.3300 H         1 SUB1        0.150
     45 H          -0.1300    5.3930   30.7040 H         1 SUB1        0.150
     46 H          -0.3180    3.0500   29.9730 H         1 SUB1        0.150
     47 H          -2.3740    2.2550   28.8460 H         1 SUB1        0.150
     48 H          -2.6800    4.8340   23.6360 H         1 SUB1        0.000
     49 H          -4.8520    3.7740   22.0350 H         1 SUB1        0.000
     50 H          -3.2850    3.3230   21.2820 H         1 SUB1        0.000
     51 H          -1.9120    4.9730   20.2400 H         1 SUB1        0.150
     52 H          -5.4190    6.1330   22.3730 H         1 SUB1        0.150
     53 H          -1.7430    7.2220   19.2650 H         1 SUB1        0.150
     54 H          -5.2370    8.3860   21.4100 H         1 SUB1        0.150
     55 H          -4.1080    4.0170   25.2360 H         1 SUB1        0.370
     56 H          -4.8810   10.6960   19.3240 H         1 SUB1        0.669
     57 H          -5.1360    9.1840   18.4130 H         1 SUB1        0.669
     58 H          -2.2460   10.7110   20.3390 H         1 SUB1        0.669
     59 H          -1.5520    9.6730   19.0660 H         1 SUB1        0.669
     60 H          -1.1830    5.1550   23.2010 H         1 SUB1        0.000
     61 H           0.3150    4.5600   22.4070 H         1 SUB1        0.000
     62 H          -0.1580    4.5880   25.4330 H         1 SUB1        0.000
     63 H           0.7700    5.8350   24.5340 H         1 SUB1        0.000
     64 H           2.2900    4.0730   25.4480 H         1 SUB1        0.000
     65 H           2.2880    4.0520   23.6520 H         1 SUB1        0.000
     66 H           0.6080    2.2800   25.5010 H         1 SUB1        0.000
     67 H           2.0360    1.7600   24.5420 H         1 SUB1        0.000
     68 H           0.8270    2.1810   22.4550 H         1 SUB1        0.000
     69 H          -0.1460    1.1000   23.5090 H         1 SUB1        0.000
@<TRIPOS>BOND
     1   15   14 1  
     2   16   15 1  
     3   16   17 2  
     4    1    2 2  
     5    1    3 2  
     6    1    5 1  
     7   14    1 1  
     8    5    6 ar 
     9    6    7 ar 
    10    7   13 ar 
    11    8    9 ar 
    12   13    8 ar 
    13    9   10 ar 
    14   11   10 ar 
    15   12   11 ar 
    16   13   12 ar 
    17   19   18 1  
    18   18   28 2  
    19   18   32 am 
    20   19   20 1  
    21   29   19 1  
    22   20   21 1  
    23   21   22 ar 
    24   22   24 ar 
    25   21   23 ar 
    26   23   25 ar 
    27   24   26 ar 
    28   25   26 ar 
    29   26   27 1  
    30   27   30 ar 
    31   27   31 ar 
    32   29   16 am 
    33   32   33 1  
    34   32   37 1  
    35   33   34 1  
    36   34   35 1  
    37   35   36 1  
    38   36   37 1  
    39   12    4 ar 
    40    5    4 ar 
    41   14   38 1  
    42   15   39 1  
    43   15   40 1  
    44    4   41 1  
    45    6   42 1  
    46    7   43 1  
    47    8   44 1  
    48    9   45 1  
    49   10   46 1  
    50   11   47 1  
    51   19   48 1  
    52   20   49 1  
    53   20   50 1  
    54   22   51 1  
    55   23   52 1  
    56   24   53 1  
    57   25   54 1  
    58   29   55 1  
    59   30   56 1  
    60   30   57 1  
    61   31   58 1  
    62   31   59 1  
    63   33   60 1  
    64   33   61 1  
    65   34   62 1  
    66   34   63 1  
    67   35   64 1  
    68   35   65 1  
    69   36   66 1  
    70   36   67 1  
    71   37   68 1  
    72   37   69 1  
@<TRIPOS>SUBSTRUCTURE
     1 SUB1        1 GROUP

### 
### Created by X-TOOL on Tue Dec  2 13:04:54 2003
### 

@<TRIPOS>MOLECULE
1ppc-ligand.1ppc.008
   69    72     1     0     0
SMALL
MMFF94_CHARGES


@<TRIPOS>ATOM
      1 S          -2.9670    4.4060   23.4870 S.o2      1 SUB1        1.447
      2 O1         -2.1820    3.2280   22.8950 O.2       1 SUB1       -0.650
      3 O2         -4.3050    3.9130   24.0300 O.2       1 SUB1       -0.650
      4 C1         -2.1350    6.3340   21.6440 C.ar      1 SUB1       -0.150
      5 C2         -3.1760    5.6300   22.1930 C.ar      1 SUB1       -0.009
      6 C3         -4.4510    5.8980   21.7790 C.ar      1 SUB1       -0.150
      7 C4         -4.6870    6.9030   20.8690 C.ar      1 SUB1       -0.150
      8 C5         -3.8990    8.5930   19.4070 C.ar      1 SUB1       -0.150
      9 C6         -2.8450    9.2790   18.8330 C.ar      1 SUB1       -0.150
     10 C7         -1.5450    9.0030   19.2170 C.ar      1 SUB1       -0.150
     11 C8         -1.2840    8.0350   20.1740 C.ar      1 SUB1       -0.150
     12 C9         -2.3410    7.3240   20.7070 C.ar      1 SUB1        0.000
     13 C10        -3.6320    7.6070   20.3340 C.ar      1 SUB1        0.000
     14 N          -2.2160    4.9810   24.8500 N.am      1 SUB1       -0.914
     15 CA         -2.9320    6.0550   25.4940 C.3       1 SUB1        0.417
     16 C          -3.5150    5.6890   26.8530 C.2       1 SUB1        0.569
     17 O          -3.5090    4.5310   27.2900 O.2       1 SUB1       -0.570
     18 C          -6.1380    6.1970   28.5940 C.2       1 SUB1        0.569
     19 CA         -4.7300    6.7750   28.7440 C.3       1 SUB1        0.361
     20 CB         -3.9220    5.9560   29.7630 C.3       1 SUB1        0.144
     21 CG         -2.9450    6.7940   30.5630 C.ar      1 SUB1       -0.144
     22 CD1        -3.3000    7.2980   31.8010 C.ar      1 SUB1       -0.150
     23 CD2        -1.6660    6.9810   30.0930 C.ar      1 SUB1       -0.150
     24 CE1        -2.3920    8.0180   32.5540 C.ar      1 SUB1       -0.150
     25 CE2        -0.7650    7.7060   30.8470 C.ar      1 SUB1       -0.150
     26 CZ         -1.1040    8.2160   32.0940 C.ar      1 SUB1       -0.022
     27 CF         -0.1440    8.8860   32.8650 C.cat     1 SUB1        0.731
     28 O          -6.3240    5.1610   27.9470 O.2       1 SUB1       -0.570
     29 N          -4.1090    6.7490   27.4270 N.am      1 SUB1       -0.730
     30 NG1         0.2870   10.1130   32.5160 N.pl3     1 SUB1       -1.192
     31 NG2         0.2870    8.3030   33.9900 N.pl3     1 SUB1       -1.192
     32 N1         -7.1660    6.8250   29.1880 N.am      1 SUB1       -0.660
     33 C2         -6.9900    7.9220   30.1250 C.3       1 SUB1        0.300
     34 C3         -7.7530    9.1050   29.5780 C.3       1 SUB1        0.000
     35 C4         -9.2300    8.7410   29.5840 C.3       1 SUB1        0.000
     36 C5         -9.3880    7.5170   28.6860 C.3       1 SUB1        0.000
     37 C6         -8.5380    6.3420   29.1220 C.3       1 SUB1        0.300
     38 H          -1.3500    4.6170   25.1930 H         1 SUB1        0.420
     39 HA1        -2.2390    6.8990   25.6310 H         1 SUB1        0.000
     40 HA2        -3.7580    6.3630   24.8360 H         1 SUB1        0.000
     41 H          -1.1220    6.1070   21.9560 H         1 SUB1        0.150
     42 H          -5.2790    5.3180   22.1700 H         1 SUB1        0.150
     43 H          -5.7030    7.1400   20.5740 H         1 SUB1        0.150
     44 H          -4.9210    8.8270   19.1330 H         1 SUB1        0.150
     45 H          -3.0370   10.0350   18.0800 H         1 SUB1        0.150
     46 H          -0.7240    9.5490   18.7660 H         1 SUB1        0.150
     47 H          -0.2680    7.8410   20.4990 H         1 SUB1        0.150
     48 H          -4.7940    7.8150   29.0980 H         1 SUB1        0.000
     49 H          -3.3570    5.1830   29.2220 H         1 SUB1        0.000
     50 H          -4.6230    5.4760   30.4620 H         1 SUB1        0.000
     51 H          -4.2990    7.1260   32.1850 H         1 SUB1        0.150
     52 H          -1.3680    6.5620   29.1390 H         1 SUB1        0.150
     53 H          -2.6920    8.4290   33.5100 H         1 SUB1        0.150
     54 H           0.2310    7.8810   30.4570 H         1 SUB1        0.150
     55 H          -4.1270    7.6000   26.9010 H         1 SUB1        0.370
     56 H          -0.1770   10.9490   32.8980 H         1 SUB1        0.669
     57 H           1.0800   10.2150   31.8680 H         1 SUB1        0.669
     58 H           0.2490    7.2780   34.0870 H         1 SUB1        0.669
     59 H           0.6570    8.8790   34.7590 H         1 SUB1        0.669
     60 H          -5.9220    8.1720   30.2170 H         1 SUB1        0.000
     61 H          -7.3870    7.6420   31.1120 H         1 SUB1        0.000
     62 H          -7.4240    9.3210   28.5500 H         1 SUB1        0.000
     63 H          -7.5820    9.9880   30.2110 H         1 SUB1        0.000
     64 H          -9.8280    9.5770   29.1940 H         1 SUB1        0.000
     65 H          -9.5560    8.5030   30.6070 H         1 SUB1        0.000
     66 H          -9.0990    7.7960   27.6620 H         1 SUB1        0.000
     67 H         -10.4440    7.2080   28.6980 H         1 SUB1        0.000
     68 H          -8.8620    5.9850   30.1110 H         1 SUB1        0.000
     69 H          -8.6180    5.5240   28.3920 H         1 SUB1        0.000
@<TRIPOS>BOND
     1   15   14 1  
     2   16   15 1  
     3   16   17 2  
     4    1    2 2  
     5    1    3 2  
     6    1    5 1  
     7   14    1 1  
     8    5    6 ar 
     9    6    7 ar 
    10    7   13 ar 
    11    8    9 ar 
    12   13    8 ar 
    13    9   10 ar 
    14   11   10 ar 
    15   12   11 ar 
    16   13   12 ar 
    17   19   18 1  
    18   18   28 2  
    19   18   32 am 
    20   19   20 1  
    21   29   19 1  
    22   20   21 1  
    23   21   22 ar 
    24   22   24 ar 
    25   21   23 ar 
    26   23   25 ar 
    27   24   26 ar 
    28   25   26 ar 
    29   26   27 1  
    30   27   30 ar 
    31   27   31 ar 
    32   29   16 am 
    33   32   33 1  
    34   32   37 1  
    35   33   34 1  
    36   34   35 1  
    37   35   36 1  
    38   36   37 1  
    39   12    4 ar 
    40    5    4 ar 
    41   14   38 1  
    42   15   39 1  
    43   15   40 1  
    44    4   41 1  
    45    6   42 1  
    46    7   43 1  
    47    8   44 1  
    48    9   45 1  
    49   10   46 1  
    50   11   47 1  
    51   19   48 1  
    52   20   49 1  
    53   20   50 1  
    54   22   51 1  
    55   23   52 1  
    56   24   53 1  
    57   25   54 1  
    58   29   55 1  
    59   30   56 1  
    60   30   57 1  
    61   31   58 1  
    62   31   59 1  
    63   33   60 1  
    64   33   61 1  
    65   34   62 1  
    66   34   63 1  
    67   35   64 1  
    68   35   65 1  
    69   36   66 1  
    70   36   67 1  
    71   37   68 1  
    72   37   69 1  
@<TRIPOS>SUBSTRUCTURE
     1 SUB1        1 GROUP

### 
### Created by X-TOOL on Tue Dec  2 13:04:54 2003
### 

@<TRIPOS>MOLECULE
1ppc-ligand.1ppc.009
   69    72     1     0     0
SMALL
MMFF94_CHARGES


@<TRIPOS>ATOM
      1 S          -5.6510    4.9640   20.8040 S.o2      1 SUB1        1.447
      2 O1         -6.1950    4.5610   19.4280 O.2       1 SUB1       -0.650
      3 O2         -6.7410    5.6740   21.6030 O.2       1 SUB1       -0.650
      4 C1         -4.2850    7.3800   20.4860 C.ar      1 SUB1       -0.150
      5 C2         -4.2190    6.0120   20.5410 C.ar      1 SUB1       -0.009
      6 C3         -3.0160    5.3950   20.3360 C.ar      1 SUB1       -0.150
      7 C4         -1.9020    6.1390   20.0210 C.ar      1 SUB1       -0.150
      8 C5         -0.8470    8.2300   19.6640 C.ar      1 SUB1       -0.150
      9 C6         -0.9100    9.6110   19.6410 C.ar      1 SUB1       -0.150
     10 C7         -2.1110   10.2550   19.8730 C.ar      1 SUB1       -0.150
     11 C8         -3.2610    9.5270   20.1360 C.ar      1 SUB1       -0.150
     12 C9         -3.1760    8.1510   20.2040 C.ar      1 SUB1        0.000
     13 C10        -1.9860    7.5110   19.9610 C.ar      1 SUB1        0.000
     14 N          -5.3470    3.6200   21.7280 N.am      1 SUB1       -0.914
     15 CA         -4.8860    3.9270   23.0600 C.3       1 SUB1        0.417
     16 C          -6.0020    4.0860   24.0850 C.2       1 SUB1        0.569
     17 O          -7.0370    3.4090   24.0520 O.2       1 SUB1       -0.570
     18 C          -6.4760    4.4120   27.1080 C.2       1 SUB1        0.569
     19 CA         -6.5750    5.5130   26.0520 C.3       1 SUB1        0.361
     20 CB         -6.1100    6.8570   26.6350 C.3       1 SUB1        0.144
     21 CG         -4.8260    6.7490   27.4330 C.ar      1 SUB1       -0.144
     22 CD1        -3.6100    6.5980   26.7920 C.ar      1 SUB1       -0.150
     23 CD2        -4.8620    6.8910   28.8000 C.ar      1 SUB1       -0.150
     24 CE1        -2.4340    6.5520   27.5160 C.ar      1 SUB1       -0.150
     25 CE2        -3.6840    6.8390   29.5190 C.ar      1 SUB1       -0.150
     26 CZ         -2.4540    6.6910   28.8900 C.ar      1 SUB1       -0.022
     27 CF         -1.2720    6.7140   29.6440 C.cat     1 SUB1        0.731
     28 O          -5.3900    3.8810   27.3600 O.2       1 SUB1       -0.570
     29 N          -5.7480    5.1060   24.9240 N.am      1 SUB1       -0.730
     30 NG1        -0.4310    7.7640   29.5780 N.pl3     1 SUB1       -1.192
     31 NG2        -1.0330    5.6970   30.4800 N.pl3     1 SUB1       -1.192
     32 N1         -7.5860    4.0420   27.7680 N.am      1 SUB1       -0.660
     33 C2         -8.8450    4.7620   27.6680 C.3       1 SUB1        0.300
     34 C3         -9.8860    3.7780   27.1880 C.3       1 SUB1        0.000
     35 C4        -10.0560    2.7250   28.2720 C.3       1 SUB1        0.000
     36 C5         -8.6990    2.0500   28.4490 C.3       1 SUB1        0.000
     37 C6         -7.5910    3.0210   28.8060 C.3       1 SUB1        0.300
     38 H          -5.4720    2.6860   21.3940 H         1 SUB1        0.420
     39 HA1        -4.2240    3.1140   23.3940 H         1 SUB1        0.000
     40 HA2        -4.3180    4.8680   23.0210 H         1 SUB1        0.000
     41 H          -5.2340    7.8710   20.6690 H         1 SUB1        0.150
     42 H          -2.9400    4.3180   20.4220 H         1 SUB1        0.150
     43 H          -0.9590    5.6430   19.8200 H         1 SUB1        0.150
     44 H           0.0850    7.7190   19.4520 H         1 SUB1        0.150
     45 H          -0.0150   10.1900   19.4400 H         1 SUB1        0.150
     46 H          -2.1540   11.3380   19.8480 H         1 SUB1        0.150
     47 H          -4.2090   10.0300   20.2870 H         1 SUB1        0.150
     48 H          -7.6200    5.6140   25.7210 H         1 SUB1        0.000
     49 H          -6.9000    7.2440   27.2940 H         1 SUB1        0.000
     50 H          -5.9470    7.5610   25.8050 H         1 SUB1        0.000
     51 H          -3.5780    6.5150   25.7110 H         1 SUB1        0.150
     52 H          -5.8070    7.0430   29.3100 H         1 SUB1        0.150
     53 H          -1.4910    6.4070   27.0030 H         1 SUB1        0.150
     54 H          -3.7200    6.9160   30.5990 H         1 SUB1        0.150
     55 H          -4.9150    5.6330   24.7590 H         1 SUB1        0.370
     56 H          -0.5290    8.4550   28.8210 H         1 SUB1        0.669
     57 H           0.3090    7.8750   30.2850 H         1 SUB1        0.669
     58 H          -0.1000    5.2600   30.5060 H         1 SUB1        0.669
     59 H          -1.7810    5.3500   31.0960 H         1 SUB1        0.669
     60 H          -8.7500    5.5900   26.9500 H         1 SUB1        0.000
     61 H          -9.1300    5.1610   28.6530 H         1 SUB1        0.000
     62 H          -9.5520    3.3050   26.2530 H         1 SUB1        0.000
     63 H         -10.8410    4.2960   27.0160 H         1 SUB1        0.000
     64 H         -10.8090    1.9840   27.9660 H         1 SUB1        0.000
     65 H         -10.3690    3.1980   29.2130 H         1 SUB1        0.000
     66 H          -8.4330    1.5470   27.5090 H         1 SUB1        0.000
     67 H          -8.7810    1.3040   29.2540 H         1 SUB1        0.000
     68 H          -7.7880    3.4770   29.7870 H         1 SUB1        0.000
     69 H          -6.6230    2.4990   28.8310 H         1 SUB1        0.000
@<TRIPOS>BOND
     1   15   14 1  
     2   16   15 1  
     3   16   17 2  
     4    1    2 2  
     5    1    3 2  
     6    1    5 1  
     7   14    1 1  
     8    5    6 ar 
     9    6    7 ar 
    10    7   13 ar 
    11    8    9 ar 
    12   13    8 ar 
    13    9   10 ar 
    14   11   10 ar 
    15   12   11 ar 
    16   13   12 ar 
    17   19   18 1  
    18   18   28 2  
    19   18   32 am 
    20   19   20 1  
    21   29   19 1  
    22   20   21 1  
    23   21   22 ar 
    24   22   24 ar 
    25   21   23 ar 
    26   23   25 ar 
    27   24   26 ar 
    28   25   26 ar 
    29   26   27 1  
    30   27   30 ar 
    31   27   31 ar 
    32   29   16 am 
    33   32   33 1  
    34   32   37 1  
    35   33   34 1  
    36   34   35 1  
    37   35   36 1  
    38   36   37 1  
    39   12    4 ar 
    40    5    4 ar 
    41   14   38 1  
    42   15   39 1  
    43   15   40 1  
    44    4   41 1  
    45    6   42 1  
    46    7   43 1  
    47    8   44 1  
    48    9   45 1  
    49   10   46 1  
    50   11   47 1  
    51   19   48 1  
    52   20   49 1  
    53   20   50 1  
    54   22   51 1  
    55   23   52 1  
    56   24   53 1  
    57   25   54 1  
    58   29   55 1  
    59   30   56 1  
    60   30   57 1  
    61   31   58 1  
    62   31   59 1  
    63   33   60 1  
    64   33   61 1  
    65   34   62 1  
    66   34   63 1  
    67   35   64 1  
    68   35   65 1  
    69   36   66 1  
    70   36   67 1  
    71   37   68 1  
    72   37   69 1  
@<TRIPOS>SUBSTRUCTURE
     1 SUB1        1 GROUP

### 
### Created by X-TOOL on Tue Dec  2 13:04:54 2003
### 

@<TRIPOS>MOLECULE
1ppc-ligand.1ppc.010
   69    72     1     0     0
SMALL
MMFF94_CHARGES


@<TRIPOS>ATOM
      1 S          -4.9200    3.6730   22.0580 S.o2      1 SUB1        1.447
      2 O1         -4.2180    2.3560   21.7070 O.2       1 SUB1       -0.650
      3 O2         -6.4160    3.5490   21.7840 O.2       1 SUB1       -0.650
      4 C1         -2.8140    5.2150   21.0620 C.ar      1 SUB1       -0.150
      5 C2         -4.1630    4.9740   21.0830 C.ar      1 SUB1       -0.009
      6 C3         -4.9950    5.7910   20.3680 C.ar      1 SUB1       -0.150
      7 C4         -4.4870    6.8730   19.6880 C.ar      1 SUB1       -0.150
      8 C5         -2.6480    8.1860   18.9740 C.ar      1 SUB1       -0.150
      9 C6         -1.2840    8.4070   18.9300 C.ar      1 SUB1       -0.150
     10 C7         -0.4230    7.5760   19.6230 C.ar      1 SUB1       -0.150
     11 C8         -0.9150    6.5120   20.3630 C.ar      1 SUB1       -0.150
     12 C9         -2.2750    6.2730   20.3620 C.ar      1 SUB1        0.000
     13 C10        -3.1300    7.1060   19.6840 C.ar      1 SUB1        0.000
     14 N          -4.8770    3.9400   23.6960 N.am      1 SUB1       -0.914
     15 CA         -5.5720    5.1360   24.1040 C.3       1 SUB1        0.417
     16 C          -5.3760    5.5000   25.5710 C.2       1 SUB1        0.569
     17 O          -4.5060    6.2950   25.9490 O.2       1 SUB1       -0.570
     18 C          -7.7590    4.6430   28.1730 C.2       1 SUB1        0.569
     19 CA         -6.2950    4.8890   27.8100 C.3       1 SUB1        0.361
     20 CB         -5.3880    3.8760   28.5270 C.3       1 SUB1        0.144
     21 CG         -4.0160    4.4310   28.8550 C.ar      1 SUB1       -0.144
     22 CD1        -3.0310    4.4880   27.8850 C.ar      1 SUB1       -0.150
     23 CD2        -3.7770    4.9630   30.1000 C.ar      1 SUB1       -0.150
     24 CE1        -1.7970    5.0420   28.1690 C.ar      1 SUB1       -0.150
     25 CE2        -2.5410    5.5100   30.3790 C.ar      1 SUB1       -0.150
     26 CZ         -1.5420    5.5780   29.4150 C.ar      1 SUB1       -0.022
     27 CF         -0.3220    6.2040   29.7100 C.cat     1 SUB1        0.731
     28 O          -8.3410    3.6270   27.7770 O.2       1 SUB1       -0.570
     29 N          -6.1830    4.7730   26.3620 N.am      1 SUB1       -0.730
     30 NG1        -0.0080    7.3940   29.1650 N.pl3     1 SUB1       -1.192
     31 NG2         0.4920    5.6210   30.5980 N.pl3     1 SUB1       -1.192
     32 N1         -8.3990    5.5400   28.9410 N.am      1 SUB1       -0.660
     33 C2         -7.7210    6.6420   29.6050 C.3       1 SUB1        0.300
     34 C3         -8.3760    7.9190   29.1330 C.3       1 SUB1        0.000
     35 C4         -9.8130    7.9080   29.6330 C.3       1 SUB1        0.000
     36 C5        -10.4860    6.6840   29.0190 C.3       1 SUB1        0.000
     37 C6         -9.7850    5.3850   29.3590 C.3       1 SUB1        0.300
     38 H          -4.4130    3.3290   24.3380 H         1 SUB1        0.420
     39 HA1        -5.2090    5.9740   23.4890 H         1 SUB1        0.000
     40 HA2        -6.6470    4.9900   23.9260 H         1 SUB1        0.000
     41 H          -2.1530    4.5550   21.6110 H         1 SUB1        0.150
     42 H          -6.0590    5.5850   20.3380 H         1 SUB1        0.150
     43 H          -5.1540    7.5420   19.1550 H         1 SUB1        0.150
     44 H          -3.3300    8.8530   18.4580 H         1 SUB1        0.150
     45 H          -0.8880    9.2330   18.3500 H         1 SUB1        0.150
     46 H           0.6450    7.7580   19.5870 H         1 SUB1        0.150
     47 H          -0.2440    5.8800   20.9320 H         1 SUB1        0.150
     48 H          -6.0040    5.9040   28.1180 H         1 SUB1        0.000
     49 H          -5.2640    2.9970   27.8790 H         1 SUB1        0.000
     50 H          -5.8760    3.5740   29.4660 H         1 SUB1        0.000
     51 H          -3.2290    4.0940   26.8940 H         1 SUB1        0.150
     52 H          -4.5540    4.9530   30.8570 H         1 SUB1        0.150
     53 H          -1.0260    5.0550   27.4080 H         1 SUB1        0.150
     54 H          -2.3450    5.8960   31.3720 H         1 SUB1        0.150
     55 H          -6.7600    4.0880   25.9160 H         1 SUB1        0.370
     56 H          -0.2810    7.6050   28.1950 H         1 SUB1        0.669
     57 H           0.5060    8.0940   29.7180 H         1 SUB1        0.669
     58 H           1.5130    5.6890   30.4820 H         1 SUB1        0.669
     59 H           0.0980    5.1040   31.3960 H         1 SUB1        0.669
     60 H          -6.6540    6.6440   29.3370 H         1 SUB1        0.000
     61 H          -7.8250    6.5450   30.6960 H         1 SUB1        0.000
     62 H          -8.3600    7.9650   28.0340 H         1 SUB1        0.000
     63 H          -7.8420    8.7880   29.5440 H         1 SUB1        0.000
     64 H         -10.3310    8.8240   29.3130 H         1 SUB1        0.000
     65 H          -9.8310    7.8400   30.7300 H         1 SUB1        0.000
     66 H         -10.4940    6.8000   27.9260 H         1 SUB1        0.000
     67 H         -11.5200    6.6300   29.3910 H         1 SUB1        0.000
     68 H          -9.8360    5.1970   30.4420 H         1 SUB1        0.000
     69 H         -10.2530    4.5480   28.8200 H         1 SUB1        0.000
@<TRIPOS>BOND
     1   15   14 1  
     2   16   15 1  
     3   16   17 2  
     4    1    2 2  
     5    1    3 2  
     6    1    5 1  
     7   14    1 1  
     8    5    6 ar 
     9    6    7 ar 
    10    7   13 ar 
    11    8    9 ar 
    12   13    8 ar 
    13    9   10 ar 
    14   11   10 ar 
    15   12   11 ar 
    16   13   12 ar 
    17   19   18 1  
    18   18   28 2  
    19   18   32 am 
    20   19   20 1  
    21   29   19 1  
    22   20   21 1  
    23   21   22 ar 
    24   22   24 ar 
    25   21   23 ar 
    26   23   25 ar 
    27   24   26 ar 
    28   25   26 ar 
    29   26   27 1  
    30   27   30 ar 
    31   27   31 ar 
    32   29   16 am 
    33   32   33 1  
    34   32   37 1  
    35   33   34 1  
    36   34   35 1  
    37   35   36 1  
    38   36   37 1  
    39   12    4 ar 
    40    5    4 ar 
    41   14   38 1  
    42   15   39 1  
    43   15   40 1  
    44    4   41 1  
    45    6   42 1  
    46    7   43 1  
    47    8   44 1  
    48    9   45 1  
    49   10   46 1  
    50   11   47 1  
    51   19   48 1  
    52   20   49 1  
    53   20   50 1  
    54   22   51 1  
    55   23   52 1  
    56   24   53 1  
    57   25   54 1  
    58   29   55 1  
    59   30   56 1  
    60   30   57 1  
    61   31   58 1  
    62   31   59 1  
    63   33   60 1  
    64   33   61 1  
    65   34   62 1  
    66   34   63 1  
    67   35   64 1  
    68   35   65 1  
    69   36   66 1  
    70   36   67 1  
    71   37   68 1  
    72   37   69 1  
@<TRIPOS>SUBSTRUCTURE
     1 SUB1        1 GROUP

### 
### Created by X-TOOL on Tue Dec  2 13:04:54 2003
### 

@<TRIPOS>MOLECULE
1ppc-ligand.1ppc.011
   69    72     1     0     0
SMALL
MMFF94_CHARGES


@<TRIPOS>ATOM
      1 S          -1.9010    3.9550   21.6680 S.o2      1 SUB1        1.447
      2 O1         -2.7530    3.4530   22.8410 O.2       1 SUB1       -0.650
      3 O2         -0.4620    4.1710   22.1310 O.2       1 SUB1       -0.650
      4 C1         -1.9210    6.5200   20.5610 C.ar      1 SUB1       -0.150
      5 C2         -2.6460    5.4690   21.0590 C.ar      1 SUB1       -0.009
      6 C3         -4.0050    5.5830   21.1520 C.ar      1 SUB1       -0.150
      7 C4         -4.6260    6.7600   20.8040 C.ar      1 SUB1       -0.150
      8 C5         -4.5370    8.9690   19.9510 C.ar      1 SUB1       -0.150
      9 C6         -3.8060   10.0160   19.4190 C.ar      1 SUB1       -0.150
     10 C7         -2.4340    9.9090   19.2910 C.ar      1 SUB1       -0.150
     11 C8         -1.7770    8.7550   19.6880 C.ar      1 SUB1       -0.150
     12 C9         -2.5220    7.6990   20.1740 C.ar      1 SUB1        0.000
     13 C10        -3.8830    7.8100   20.3130 C.ar      1 SUB1        0.000
     14 N          -1.7350    2.7700   20.5190 N.am      1 SUB1       -0.914
     15 CA         -0.8950    3.1550   19.4110 C.3       1 SUB1        0.417
     16 C          -0.3300    1.9810   18.6200 C.2       1 SUB1        0.569
     17 O           0.5810    2.1130   17.7930 O.2       1 SUB1       -0.570
     18 C          -0.2300   -1.3340   19.4770 C.2       1 SUB1        0.569
     19 CA         -0.7280   -0.4650   18.3230 C.3       1 SUB1        0.361
     20 CB         -1.9740   -1.0940   17.6780 C.3       1 SUB1        0.144
     21 CG         -1.6620   -1.8770   16.4180 C.ar      1 SUB1       -0.144
     22 CD1        -0.7030   -2.8730   16.4290 C.ar      1 SUB1       -0.150
     23 CD2        -2.4010   -1.6560   15.2800 C.ar      1 SUB1       -0.150
     24 CE1        -0.4560   -3.6230   15.2940 C.ar      1 SUB1       -0.150
     25 CE2        -2.1460   -2.4040   14.1490 C.ar      1 SUB1       -0.150
     26 CZ         -1.1880   -3.4110   14.1430 C.ar      1 SUB1       -0.022
     27 CF         -1.0040   -4.1990   12.9980 C.cat     1 SUB1        0.731
     28 O          -1.0250   -1.7950   20.3030 O.2       1 SUB1       -0.570
     29 N          -1.0190    0.8540   18.8680 N.am      1 SUB1       -0.730
     30 NG1         0.1260   -4.1090   12.2730 N.pl3     1 SUB1       -1.192
     31 NG2        -1.9510   -5.0900   12.6820 N.pl3     1 SUB1       -1.192
     32 N1          1.0830   -1.6010   19.5720 N.am      1 SUB1       -0.660
     33 C2          2.0370   -1.2650   18.5280 C.3       1 SUB1        0.300
     34 C3          3.0890   -0.3780   19.1520 C.3       1 SUB1        0.000
     35 C4          3.8310   -1.2070   20.1890 C.3       1 SUB1        0.000
     36 C5          2.7980   -1.6500   21.2220 C.3       1 SUB1        0.000
     37 C6          1.6520   -2.4360   20.6210 C.3       1 SUB1        0.300
     38 H          -2.1740    1.8750   20.5880 H         1 SUB1        0.420
     39 HA1        -1.4900    3.7780   18.7260 H         1 SUB1        0.000
     40 HA2        -0.0530    3.7440   19.8030 H         1 SUB1        0.000
     41 H          -0.8460    6.4210   20.4680 H         1 SUB1        0.150
     42 H          -4.5950    4.7440   21.5010 H         1 SUB1        0.150
     43 H          -5.7000    6.8610   20.9160 H         1 SUB1        0.150
     44 H          -5.6090    9.0590   20.0830 H         1 SUB1        0.150
     45 H          -4.3110   10.9210   19.1010 H         1 SUB1        0.150
     46 H          -1.8670   10.7350   18.8780 H         1 SUB1        0.150
     47 H          -0.6970    8.6830   19.6170 H         1 SUB1        0.150
     48 H           0.0600   -0.3790   17.5600 H         1 SUB1        0.000
     49 H          -2.6800   -0.2910   17.4250 H         1 SUB1        0.000
     50 H          -2.4390   -1.7750   18.4060 H         1 SUB1        0.000
     51 H          -0.1390   -3.0680   17.3340 H         1 SUB1        0.150
     52 H          -3.1790   -0.9000   15.2710 H         1 SUB1        0.150
     53 H           0.3180   -4.3820   15.3090 H         1 SUB1        0.150
     54 H          -2.7070   -2.2030   13.2430 H         1 SUB1        0.150
     55 H          -1.8030    0.9270   19.4840 H         1 SUB1        0.370
     56 H           0.3280   -3.2530   11.7370 H         1 SUB1        0.669
     57 H           0.7890   -4.8970   12.2530 H         1 SUB1        0.669
     58 H          -2.9460   -4.8340   12.7610 H         1 SUB1        0.669
     59 H          -1.6860   -6.0310   12.3600 H         1 SUB1        0.669
     60 H           1.5300   -0.7310   17.7110 H         1 SUB1        0.000
     61 H           2.5020   -2.1810   18.1340 H         1 SUB1        0.000
     62 H           2.6110    0.4880   19.6340 H         1 SUB1        0.000
     63 H           3.7900   -0.0270   18.3810 H         1 SUB1        0.000
     64 H           4.6110   -0.6000   20.6710 H         1 SUB1        0.000
     65 H           4.2910   -2.0850   19.7140 H         1 SUB1        0.000
     66 H           2.3890   -0.7560   21.7140 H         1 SUB1        0.000
     67 H           3.3010   -2.2830   21.9700 H         1 SUB1        0.000
     68 H           2.0200   -3.3810   20.1960 H         1 SUB1        0.000
     69 H           0.8940   -2.6500   21.3890 H         1 SUB1        0.000
@<TRIPOS>BOND
     1   15   14 1  
     2   16   15 1  
     3   16   17 2  
     4    1    2 2  
     5    1    3 2  
     6    1    5 1  
     7   14    1 1  
     8    5    6 ar 
     9    6    7 ar 
    10    7   13 ar 
    11    8    9 ar 
    12   13    8 ar 
    13    9   10 ar 
    14   11   10 ar 
    15   12   11 ar 
    16   13   12 ar 
    17   19   18 1  
    18   18   28 2  
    19   18   32 am 
    20   19   20 1  
    21   29   19 1  
    22   20   21 1  
    23   21   22 ar 
    24   22   24 ar 
    25   21   23 ar 
    26   23   25 ar 
    27   24   26 ar 
    28   25   26 ar 
    29   26   27 1  
    30   27   30 ar 
    31   27   31 ar 
    32   29   16 am 
    33   32   33 1  
    34   32   37 1  
    35   33   34 1  
    36   34   35 1  
    37   35   36 1  
    38   36   37 1  
    39   12    4 ar 
    40    5    4 ar 
    41   14   38 1  
    42   15   39 1  
    43   15   40 1  
    44    4   41 1  
    45    6   42 1  
    46    7   43 1  
    47    8   44 1  
    48    9   45 1  
    49   10   46 1  
    50   11   47 1  
    51   19   48 1  
    52   20   49 1  
    53   20   50 1  
    54   22   51 1  
    55   23   52 1  
    56   24   53 1  
    57   25   54 1  
    58   29   55 1  
    59   30   56 1  
    60   30   57 1  
    61   31   58 1  
    62   31   59 1  
    63   33   60 1  
    64   33   61 1  
    65   34   62 1  
    66   34   63 1  
    67   35   64 1  
    68   35   65 1  
    69   36   66 1  
    70   36   67 1  
    71   37   68 1  
    72   37   69 1  
@<TRIPOS>SUBSTRUCTURE
     1 SUB1        1 GROUP

### 
### Created by X-TOOL on Tue Dec  2 13:04:54 2003
### 

@<TRIPOS>MOLECULE
1ppc-ligand.1ppc.012
   69    72     1     0     0
SMALL
MMFF94_CHARGES


@<TRIPOS>ATOM
      1 S          -1.8620    3.2340   22.3300 S.o2      1 SUB1        1.447
      2 O1         -3.3180    2.8610   22.6410 O.2       1 SUB1       -0.650
      3 O2         -1.0600    3.3020   23.6270 O.2       1 SUB1       -0.650
      4 C1         -2.9590    5.2780   20.7730 C.ar      1 SUB1       -0.150
      5 C2         -1.8730    4.8040   21.4630 C.ar      1 SUB1       -0.009
      6 C3         -0.7130    5.5280   21.4570 C.ar      1 SUB1       -0.150
      7 C4         -0.6240    6.6860   20.7200 C.ar      1 SUB1       -0.150
      8 C5         -1.6060    8.3210   19.3130 C.ar      1 SUB1       -0.150
      9 C6         -2.7130    8.8120   18.6450 C.ar      1 SUB1       -0.150
     10 C7         -3.9030    8.1090   18.6610 C.ar      1 SUB1       -0.150
     11 C8         -4.0030    6.9110   19.3500 C.ar      1 SUB1       -0.150
     12 C9         -2.9060    6.4530   20.0520 C.ar      1 SUB1        0.000
     13 C10        -1.7200    7.1450   20.0260 C.ar      1 SUB1        0.000
     14 N          -1.1090    2.0080   21.5050 N.am      1 SUB1       -0.914
     15 CA          0.2840    2.2680   21.2300 C.3       1 SUB1        0.417
     16 C           0.9630    1.1940   20.3890 C.2       1 SUB1        0.569
     17 O           1.4830    1.4380   19.2930 O.2       1 SUB1       -0.570
     18 C           1.8850   -2.0590   21.6440 C.2       1 SUB1        0.569
     19 CA          1.3770   -1.2670   20.4390 C.3       1 SUB1        0.361
     20 CB          0.3280   -2.0820   19.6670 C.3       1 SUB1        0.144
     21 CG          0.3470   -1.8170   18.1750 C.ar      1 SUB1       -0.144
     22 CD1         1.0500   -2.6490   17.3220 C.ar      1 SUB1       -0.150
     23 CD2        -0.4130   -0.7960   17.6550 C.ar      1 SUB1       -0.150
     24 CE1         1.0240   -2.4400   15.9560 C.ar      1 SUB1       -0.150
     25 CE2        -0.4310   -0.5880   16.2910 C.ar      1 SUB1       -0.150
     26 CZ          0.2670   -1.4160   15.4200 C.ar      1 SUB1       -0.022
     27 CF          0.1710   -1.2200   14.0350 C.cat     1 SUB1        0.731
     28 O           1.2410   -2.0790   22.6980 O.2       1 SUB1       -0.570
     29 N           0.8190   -0.0210   20.9460 N.am      1 SUB1       -0.730
     30 NG1         1.0880   -0.4880   13.3760 N.pl3     1 SUB1       -1.192
     31 NG2        -0.8180   -1.8330   13.3750 N.pl3     1 SUB1       -1.192
     32 N1          3.0340   -2.7460   21.5340 N.am      1 SUB1       -0.660
     33 C2          3.7290   -2.9310   20.2710 C.3       1 SUB1        0.300
     34 C3          5.1230   -2.3760   20.4410 C.3       1 SUB1        0.000
     35 C4          5.8350   -3.2340   21.4750 C.3       1 SUB1        0.000
     36 C5          5.0340   -3.1230   22.7700 C.3       1 SUB1        0.000
     37 C6          3.5890   -3.5480   22.6160 C.3       1 SUB1        0.300
     38 H          -1.5750    1.1680   21.2250 H         1 SUB1        0.420
     39 HA1         0.3570    3.2250   20.6930 H         1 SUB1        0.000
     40 HA2         0.8170    2.3440   22.1890 H         1 SUB1        0.000
     41 H          -3.8840    4.7150   20.7950 H         1 SUB1        0.150
     42 H           0.1380    5.1890   22.0350 H         1 SUB1        0.150
     43 H           0.3090    7.2370   20.6850 H         1 SUB1        0.150
     44 H          -0.6620    8.8520   19.2780 H         1 SUB1        0.150
     45 H          -2.6470    9.7520   18.1070 H         1 SUB1        0.150
     46 H          -4.7640    8.4980   18.1310 H         1 SUB1        0.150
     47 H          -4.9260    6.3430   19.3370 H         1 SUB1        0.150
     48 H           2.2170   -1.0430   19.7650 H         1 SUB1        0.000
     49 H          -0.6690   -1.8250   20.0550 H         1 SUB1        0.000
     50 H           0.5220   -3.1510   19.8340 H         1 SUB1        0.000
     51 H           1.6260   -3.4730   17.7280 H         1 SUB1        0.150
     52 H          -0.9950   -0.1580   18.3120 H         1 SUB1        0.150
     53 H           1.6010   -3.0830   15.3020 H         1 SUB1        0.150
     54 H          -1.0020    0.2400   15.8890 H         1 SUB1        0.150
     55 H           0.2770   -0.0740   21.7850 H         1 SUB1        0.370
     56 H           1.3250   -0.7150   12.4000 H         1 SUB1        0.669
     57 H           1.5530    0.3000   13.8480 H         1 SUB1        0.669
     58 H          -0.9050   -1.7200   12.3550 H         1 SUB1        0.669
     59 H          -1.4940   -2.4180   13.8870 H         1 SUB1        0.669
     60 H           3.2040   -2.3910   19.4690 H         1 SUB1        0.000
     61 H           3.7770   -4.0020   20.0210 H         1 SUB1        0.000
     62 H           5.0720   -1.3340   20.7880 H         1 SUB1        0.000
     63 H           5.6640   -2.4170   19.4840 H         1 SUB1        0.000
     64 H           6.8600   -2.8670   21.6320 H         1 SUB1        0.000
     65 H           5.8680   -4.2810   21.1410 H         1 SUB1        0.000
     66 H           5.0570   -2.0760   23.1060 H         1 SUB1        0.000
     67 H           5.5070   -3.7620   23.5300 H         1 SUB1        0.000
     68 H           3.5310   -4.6170   22.3630 H         1 SUB1        0.000
     69 H           3.0370   -3.3610   23.5480 H         1 SUB1        0.000
@<TRIPOS>BOND
     1   15   14 1  
     2   16   15 1  
     3   16   17 2  
     4    1    2 2  
     5    1    3 2  
     6    1    5 1  
     7   14    1 1  
     8    5    6 ar 
     9    6    7 ar 
    10    7   13 ar 
    11    8    9 ar 
    12   13    8 ar 
    13    9   10 ar 
    14   11   10 ar 
    15   12   11 ar 
    16   13   12 ar 
    17   19   18 1  
    18   18   28 2  
    19   18   32 am 
    20   19   20 1  
    21   29   19 1  
    22   20   21 1  
    23   21   22 ar 
    24   22   24 ar 
    25   21   23 ar 
    26   23   25 ar 
    27   24   26 ar 
    28   25   26 ar 
    29   26   27 1  
    30   27   30 ar 
    31   27   31 ar 
    32   29   16 am 
    33   32   33 1  
    34   32   37 1  
    35   33   34 1  
    36   34   35 1  
    37   35   36 1  
    38   36   37 1  
    39   12    4 ar 
    40    5    4 ar 
    41   14   38 1  
    42   15   39 1  
    43   15   40 1  
    44    4   41 1  
    45    6   42 1  
    46    7   43 1  
    47    8   44 1  
    48    9   45 1  
    49   10   46 1  
    50   11   47 1  
    51   19   48 1  
    52   20   49 1  
    53   20   50 1  
    54   22   51 1  
    55   23   52 1  
    56   24   53 1  
    57   25   54 1  
    58   29   55 1  
    59   30   56 1  
    60   30   57 1  
    61   31   58 1  
    62   31   59 1  
    63   33   60 1  
    64   33   61 1  
    65   34   62 1  
    66   34   63 1  
    67   35   64 1  
    68   35   65 1  
    69   36   66 1  
    70   36   67 1  
    71   37   68 1  
    72   37   69 1  
@<TRIPOS>SUBSTRUCTURE
     1 SUB1        1 GROUP

### 
### Created by X-TOOL on Tue Dec  2 13:04:54 2003
### 

@<TRIPOS>MOLECULE
1ppc-ligand.1ppc.013
   69    72     1     0     0
SMALL
MMFF94_CHARGES


@<TRIPOS>ATOM
      1 S          -3.7020    4.6210   21.2800 S.o2      1 SUB1        1.447
      2 O1         -2.9920    4.2780   22.5960 O.2       1 SUB1       -0.650
      3 O2         -3.3720    3.5670   20.2260 O.2       1 SUB1       -0.650
      4 C1         -4.0190    7.3300   20.6780 C.ar      1 SUB1       -0.150
      5 C2         -3.1700    6.2600   20.7820 C.ar      1 SUB1       -0.009
      6 C3         -1.8550    6.4190   20.4440 C.ar      1 SUB1       -0.150
      7 C4         -1.4080    7.6230   19.9500 C.ar      1 SUB1       -0.150
      8 C5         -1.7930    9.8870   19.3660 C.ar      1 SUB1       -0.150
      9 C6         -2.6450   10.9730   19.2920 C.ar      1 SUB1       -0.150
     10 C7         -3.9720   10.8400   19.6560 C.ar      1 SUB1       -0.150
     11 C8         -4.4610    9.6230   20.1030 C.ar      1 SUB1       -0.150
     12 C9         -3.5900    8.5570   20.2170 C.ar      1 SUB1        0.000
     13 C10        -2.2750    8.6860   19.8430 C.ar      1 SUB1        0.000
     14 N          -5.3450    4.4610   21.4450 N.am      1 SUB1       -0.914
     15 CA         -6.0740    4.7140   20.2250 C.3       1 SUB1        0.417
     16 C          -7.1740    3.6990   19.9360 C.2       1 SUB1        0.569
     17 O          -6.9640    2.4800   19.9110 O.2       1 SUB1       -0.570
     18 C         -10.6780    4.3930   20.1110 C.2       1 SUB1        0.569
     19 CA         -9.5940    3.6560   19.3250 C.3       1 SUB1        0.361
     20 CB         -9.9110    3.6840   17.8210 C.3       1 SUB1        0.144
     21 CG        -10.8190    2.5540   17.3810 C.ar      1 SUB1       -0.144
     22 CD1       -10.2870    1.3560   16.9390 C.ar      1 SUB1       -0.150
     23 CD2       -12.1820    2.6880   17.5070 C.ar      1 SUB1       -0.150
     24 CE1       -11.1140    0.3070   16.5870 C.ar      1 SUB1       -0.150
     25 CE2       -13.0030    1.6370   17.1500 C.ar      1 SUB1       -0.150
     26 CZ        -12.4850    0.4270   16.7060 C.ar      1 SUB1       -0.022
     27 CF        -13.3450   -0.6430   16.4190 C.cat     1 SUB1        0.731
     28 O         -10.7950    5.6190   20.0180 O.2       1 SUB1       -0.570
     29 N          -8.3270    4.3120   19.6160 N.am      1 SUB1       -0.730
     30 NG1       -13.4360   -1.1390   15.1710 N.pl3     1 SUB1       -1.192
     31 NG2       -14.0230   -1.2000   17.4290 N.pl3     1 SUB1       -1.192
     32 N1        -11.5100    3.6850   20.8930 N.am      1 SUB1       -0.660
     33 C2        -11.5580    2.2320   20.8890 C.3       1 SUB1        0.300
     34 C3        -11.2830    1.7710   22.3010 C.3       1 SUB1        0.000
     35 C4        -12.4320    2.2560   23.1730 C.3       1 SUB1        0.000
     36 C5        -12.4440    3.7800   23.0820 C.3       1 SUB1        0.000
     37 C6        -12.5870    4.2920   21.6630 C.3       1 SUB1        0.300
     38 H          -5.7880    4.2140   22.3060 H         1 SUB1        0.420
     39 HA1        -6.5340    5.7110   20.2970 H         1 SUB1        0.000
     40 HA2        -5.3620    4.6990   19.3870 H         1 SUB1        0.000
     41 H          -5.0570    7.2100   20.9660 H         1 SUB1        0.150
     42 H          -1.1620    5.5950   20.5650 H         1 SUB1        0.150
     43 H          -0.3730    7.7340   19.6450 H         1 SUB1        0.150
     44 H          -0.7590    9.9770   19.0520 H         1 SUB1        0.150
     45 H          -2.2720   11.9320   18.9490 H         1 SUB1        0.150
     46 H          -4.6360   11.6950   19.5910 H         1 SUB1        0.150
     47 H          -5.5080    9.5090   20.3580 H         1 SUB1        0.150
     48 H          -9.5460    2.6080   19.6560 H         1 SUB1        0.000
     49 H          -8.9660    3.6110   17.2630 H         1 SUB1        0.000
     50 H         -10.4030    4.6400   17.5850 H         1 SUB1        0.000
     51 H          -9.2110    1.2400   16.8660 H         1 SUB1        0.150
     52 H         -12.6080    3.6110   17.8850 H         1 SUB1        0.150
     53 H         -10.6840   -0.6170   16.2170 H         1 SUB1        0.150
     54 H         -14.0780    1.7600   17.2170 H         1 SUB1        0.150
     55 H          -8.3130    5.3110   19.5730 H         1 SUB1        0.370
     56 H         -12.6420   -1.6510   14.7610 H         1 SUB1        0.669
     57 H         -14.3000   -1.0070   14.6270 H         1 SUB1        0.669
     58 H         -14.7080   -0.6420   17.9600 H         1 SUB1        0.669
     59 H         -13.8610   -2.1870   17.6760 H         1 SUB1        0.669
     60 H         -10.7930    1.8320   20.2070 H         1 SUB1        0.000
     61 H         -12.5520    1.8900   20.5670 H         1 SUB1        0.000
     62 H         -10.3350    2.1980   22.6580 H         1 SUB1        0.000
     63 H         -11.2260    0.6730   22.3330 H         1 SUB1        0.000
     64 H         -12.2750    1.9410   24.2150 H         1 SUB1        0.000
     65 H         -13.3840    1.8480   22.8060 H         1 SUB1        0.000
     66 H         -11.5000    4.1620   23.4980 H         1 SUB1        0.000
     67 H         -13.2880    4.1590   23.6770 H         1 SUB1        0.000
     68 H         -13.5620    3.9970   21.2490 H         1 SUB1        0.000
     69 H         -12.4970    5.3880   21.6450 H         1 SUB1        0.000
@<TRIPOS>BOND
     1   15   14 1  
     2   16   15 1  
     3   16   17 2  
     4    1    2 2  
     5    1    3 2  
     6    1    5 1  
     7   14    1 1  
     8    5    6 ar 
     9    6    7 ar 
    10    7   13 ar 
    11    8    9 ar 
    12   13    8 ar 
    13    9   10 ar 
    14   11   10 ar 
    15   12   11 ar 
    16   13   12 ar 
    17   19   18 1  
    18   18   28 2  
    19   18   32 am 
    20   19   20 1  
    21   29   19 1  
    22   20   21 1  
    23   21   22 ar 
    24   22   24 ar 
    25   21   23 ar 
    26   23   25 ar 
    27   24   26 ar 
    28   25   26 ar 
    29   26   27 1  
    30   27   30 ar 
    31   27   31 ar 
    32   29   16 am 
    33   32   33 1  
    34   32   37 1  
    35   33   34 1  
    36   34   35 1  
    37   35   36 1  
    38   36   37 1  
    39   12    4 ar 
    40    5    4 ar 
    41   14   38 1  
    42   15   39 1  
    43   15   40 1  
    44    4   41 1  
    45    6   42 1  
    46    7   43 1  
    47    8   44 1  
    48    9   45 1  
    49   10   46 1  
    50   11   47 1  
    51   19   48 1  
    52   20   49 1  
    53   20   50 1  
    54   22   51 1  
    55   23   52 1  
    56   24   53 1  
    57   25   54 1  
    58   29   55 1  
    59   30   56 1  
    60   30   57 1  
    61   31   58 1  
    62   31   59 1  
    63   33   60 1  
    64   33   61 1  
    65   34   62 1  
    66   34   63 1  
    67   35   64 1  
    68   35   65 1  
    69   36   66 1  
    70   36   67 1  
    71   37   68 1  
    72   37   69 1  
@<TRIPOS>SUBSTRUCTURE
     1 SUB1        1 GROUP

### 
### Created by X-TOOL on Tue Dec  2 13:04:54 2003
### 

@<TRIPOS>MOLECULE
1ppc-ligand.1ppc.014
   69    72     1     0     0
SMALL
MMFF94_CHARGES


@<TRIPOS>ATOM
      1 S          -4.2810    2.4500   24.6010 S.o2      1 SUB1        1.447
      2 O1         -5.0670    1.2050   25.0340 O.2       1 SUB1       -0.650
      3 O2         -3.6750    2.2230   23.2190 O.2       1 SUB1       -0.650
      4 C1         -1.7860    2.1790   25.8290 C.ar      1 SUB1       -0.150
      5 C2         -3.0250    2.7640   25.8430 C.ar      1 SUB1       -0.009
      6 C3         -3.3570    3.5940   26.8780 C.ar      1 SUB1       -0.150
      7 C4         -2.4780    3.7890   27.9180 C.ar      1 SUB1       -0.150
      8 C5         -0.3720    3.4190   28.9390 C.ar      1 SUB1       -0.150
      9 C6          0.8890    2.8530   28.9060 C.ar      1 SUB1       -0.150
     10 C7          1.2540    2.0330   27.8540 C.ar      1 SUB1       -0.150
     11 C8          0.3660    1.7750   26.8220 C.ar      1 SUB1       -0.150
     12 C9         -0.8740    2.3830   26.8420 C.ar      1 SUB1        0.000
     13 C10        -1.2400    3.1870   27.8930 C.ar      1 SUB1        0.000
     14 N          -5.3090    3.7260   24.3370 N.am      1 SUB1       -0.914
     15 CA         -4.6410    4.9170   23.8700 C.3       1 SUB1        0.417
     16 C          -5.2360    5.5060   22.5970 C.2       1 SUB1        0.569
     17 O          -6.3950    5.9360   22.5410 O.2       1 SUB1       -0.570
     18 C          -3.3250    6.5940   19.7750 C.2       1 SUB1        0.569
     19 CA         -4.6040    5.8780   20.2110 C.3       1 SUB1        0.361
     20 CB         -4.9320    4.7320   19.2410 C.3       1 SUB1        0.144
     21 CG         -6.0700    3.8530   19.7190 C.ar      1 SUB1       -0.144
     22 CD1        -5.8250    2.5690   20.1710 C.ar      1 SUB1       -0.150
     23 CD2        -7.3440    4.3670   19.7880 C.ar      1 SUB1       -0.150
     24 CE1        -6.8540    1.7860   20.6570 C.ar      1 SUB1       -0.150
     25 CE2        -8.3690    3.5780   20.2690 C.ar      1 SUB1       -0.150
     26 CZ         -8.1390    2.2870   20.7300 C.ar      1 SUB1       -0.022
     27 CF         -9.1910    1.5390   21.2780 C.cat     1 SUB1        0.731
     28 O          -2.2340    6.0150   19.8260 O.2       1 SUB1       -0.570
     29 N          -4.3840    5.3860   21.5640 N.am      1 SUB1       -0.730
     30 NG1       -10.2830    1.2460   20.5480 N.pl3     1 SUB1       -1.192
     31 NG2        -9.0530    1.0690   22.5230 N.pl3     1 SUB1       -1.192
     32 N1         -3.4070    7.8560   19.3230 N.am      1 SUB1       -0.660
     33 C2         -4.6710    8.5190   19.0470 C.3       1 SUB1        0.300
     34 C3         -4.7140    9.7710   19.8900 C.3       1 SUB1        0.000
     35 C4         -3.6080   10.6920   19.4000 C.3       1 SUB1        0.000
     36 C5         -2.2920    9.9430   19.5900 C.3       1 SUB1        0.000
     37 C6         -2.2510    8.6140   18.8650 C.3       1 SUB1        0.300
     38 H          -6.2960    3.6740   24.4870 H         1 SUB1        0.420
     39 HA1        -4.6990    5.6780   24.6620 H         1 SUB1        0.000
     40 HA2        -3.5880    4.6690   23.6760 H         1 SUB1        0.000
     41 H          -1.5150    1.5380   24.9980 H         1 SUB1        0.150
     42 H          -4.3150    4.1000   26.8790 H         1 SUB1        0.150
     43 H          -2.7590    4.4160   28.7570 H         1 SUB1        0.150
     44 H          -0.6740    4.0370   29.7770 H         1 SUB1        0.150
     45 H           1.5930    3.0520   29.7060 H         1 SUB1        0.150
     46 H           2.2420    1.5880   27.8370 H         1 SUB1        0.150
     47 H           0.6390    1.1070   26.0130 H         1 SUB1        0.150
     48 H          -5.4420    6.5910   20.2140 H         1 SUB1        0.000
     49 H          -4.0350    4.1080   19.1210 H         1 SUB1        0.000
     50 H          -5.2100    5.1660   18.2690 H         1 SUB1        0.000
     51 H          -4.8150    2.1740   20.1440 H         1 SUB1        0.150
     52 H          -7.5410    5.3840   19.4670 H         1 SUB1        0.150
     53 H          -6.6520    0.7730   20.9830 H         1 SUB1        0.150
     54 H          -9.3770    3.9750   20.2880 H         1 SUB1        0.150
     55 H          -3.5200    4.9150   21.7400 H         1 SUB1        0.370
     56 H         -10.4850    1.7760   19.6880 H         1 SUB1        0.669
     57 H         -10.9170    0.4930   20.8490 H         1 SUB1        0.669
     58 H          -8.4640    0.2420   22.6990 H         1 SUB1        0.669
     59 H          -9.5360    1.5320   23.3050 H         1 SUB1        0.669
     60 H          -5.5090    7.8560   19.3110 H         1 SUB1        0.000
     61 H          -4.7330    8.7800   17.9800 H         1 SUB1        0.000
     62 H          -4.5510    9.5160   20.9480 H         1 SUB1        0.000
     63 H          -5.6910   10.2650   19.7780 H         1 SUB1        0.000
     64 H          -3.6020   11.6220   19.9870 H         1 SUB1        0.000
     65 H          -3.7570   10.9300   18.3370 H         1 SUB1        0.000
     66 H          -2.1460    9.7590   20.6650 H         1 SUB1        0.000
     67 H          -1.4730   10.5730   19.2120 H         1 SUB1        0.000
     68 H          -2.3070    8.7720   17.7780 H         1 SUB1        0.000
     69 H          -1.3230    8.0770   19.1090 H         1 SUB1        0.000
@<TRIPOS>BOND
     1   15   14 1  
     2   16   15 1  
     3   16   17 2  
     4    1    2 2  
     5    1    3 2  
     6    1    5 1  
     7   14    1 1  
     8    5    6 ar 
     9    6    7 ar 
    10    7   13 ar 
    11    8    9 ar 
    12   13    8 ar 
    13    9   10 ar 
    14   11   10 ar 
    15   12   11 ar 
    16   13   12 ar 
    17   19   18 1  
    18   18   28 2  
    19   18   32 am 
    20   19   20 1  
    21   29   19 1  
    22   20   21 1  
    23   21   22 ar 
    24   22   24 ar 
    25   21   23 ar 
    26   23   25 ar 
    27   24   26 ar 
    28   25   26 ar 
    29   26   27 1  
    30   27   30 ar 
    31   27   31 ar 
    32   29   16 am 
    33   32   33 1  
    34   32   37 1  
    35   33   34 1  
    36   34   35 1  
    37   35   36 1  
    38   36   37 1  
    39   12    4 ar 
    40    5    4 ar 
    41   14   38 1  
    42   15   39 1  
    43   15   40 1  
    44    4   41 1  
    45    6   42 1  
    46    7   43 1  
    47    8   44 1  
    48    9   45 1  
    49   10   46 1  
    50   11   47 1  
    51   19   48 1  
    52   20   49 1  
    53   20   50 1  
    54   22   51 1  
    55   23   52 1  
    56   24   53 1  
    57   25   54 1  
    58   29   55 1  
    59   30   56 1  
    60   30   57 1  
    61   31   58 1  
    62   31   59 1  
    63   33   60 1  
    64   33   61 1  
    65   34   62 1  
    66   34   63 1  
    67   35   64 1  
    68   35   65 1  
    69   36   66 1  
    70   36   67 1  
    71   37   68 1  
    72   37   69 1  
@<TRIPOS>SUBSTRUCTURE
     1 SUB1        1 GROUP

### 
### Created by X-TOOL on Tue Dec  2 13:04:54 2003
### 

@<TRIPOS>MOLECULE
1ppc-ligand.1ppc.015
   69    72     1     0     0
SMALL
MMFF94_CHARGES


@<TRIPOS>ATOM
      1 S          -0.3700    2.6050   22.5210 S.o2      1 SUB1        1.447
      2 O1          0.1830    1.6060   21.4970 O.2       1 SUB1       -0.650
      3 O2          0.0420    4.0230   22.1340 O.2       1 SUB1       -0.650
      4 C1          0.0800    0.8970   24.6850 C.ar      1 SUB1       -0.150
      5 C2          0.2590    2.1390   24.1350 C.ar      1 SUB1       -0.009
      6 C3          0.9030    3.1020   24.8610 C.ar      1 SUB1       -0.150
      7 C4          1.3130    2.8390   26.1490 C.ar      1 SUB1       -0.150
      8 C5          1.5590    1.3500   27.9740 C.ar      1 SUB1       -0.150
      9 C6          1.4060    0.0860   28.5140 C.ar      1 SUB1       -0.150
     10 C7          0.7820   -0.9090   27.7850 C.ar      1 SUB1       -0.150
     11 C8          0.3090   -0.6550   26.5070 C.ar      1 SUB1       -0.150
     12 C9          0.5100    0.5980   25.9610 C.ar      1 SUB1        0.000
     13 C10         1.1180    1.5890   26.6900 C.ar      1 SUB1        0.000
     14 N          -2.0250    2.6760   22.4320 N.am      1 SUB1       -0.914
     15 CA         -2.6110    3.6410   23.3310 C.3       1 SUB1        0.417
     16 C          -3.5690    4.6170   22.6580 C.2       1 SUB1        0.569
     17 O          -4.6890    4.8710   23.1170 O.2       1 SUB1       -0.570
     18 C          -2.5920    6.9450   20.0840 C.2       1 SUB1        0.569
     19 CA         -3.6990    6.0250   20.6010 C.3       1 SUB1        0.361
     20 CB         -4.4160    5.3390   19.4270 C.3       1 SUB1        0.144
     21 CG         -5.4120    4.2860   19.8700 C.ar      1 SUB1       -0.144
     22 CD1        -6.7590    4.5880   19.9670 C.ar      1 SUB1       -0.150
     23 CD2        -4.9860    2.9970   20.0900 C.ar      1 SUB1       -0.150
     24 CE1        -7.6740    3.6150   20.3190 C.ar      1 SUB1       -0.150
     25 CE2        -5.9040    2.0300   20.4460 C.ar      1 SUB1       -0.150
     26 CZ         -7.2610    2.3160   20.5450 C.ar      1 SUB1       -0.022
     27 CF         -8.1750    1.2950   20.8400 C.cat     1 SUB1        0.731
     28 O          -1.4070    6.6020   20.1560 O.2       1 SUB1       -0.570
     29 N          -3.0740    5.0520   21.4870 N.am      1 SUB1       -0.730
     30 NG1        -8.9820    1.3800   21.9140 N.pl3     1 SUB1       -1.192
     31 NG2        -8.2690    0.2640   19.9920 N.pl3     1 SUB1       -1.192
     32 N1         -2.9290    8.1240   19.5380 N.am      1 SUB1       -0.660
     33 C2         -4.3020    8.4970   19.2380 C.3       1 SUB1        0.300
     34 C3         -4.5920    9.7780   19.9830 C.3       1 SUB1        0.000
     35 C4         -3.6960   10.8600   19.4000 C.3       1 SUB1        0.000
     36 C5         -2.2550   10.4070   19.6190 C.3       1 SUB1        0.000
     37 C6         -1.9520    9.0590   18.9980 C.3       1 SUB1        0.300
     38 H          -2.5660    2.1040   21.8150 H         1 SUB1        0.420
     39 HA1        -3.1630    3.0970   24.1110 H         1 SUB1        0.000
     40 HA2        -1.7980    4.2200   23.7940 H         1 SUB1        0.000
     41 H          -0.4120    0.1270   24.1010 H         1 SUB1        0.150
     42 H           1.0920    4.0740   24.4220 H         1 SUB1        0.150
     43 H           1.7880    3.6170   26.7360 H         1 SUB1        0.150
     44 H           2.0200    2.1420   28.5540 H         1 SUB1        0.150
     45 H           1.7760   -0.1260   29.5110 H         1 SUB1        0.150
     46 H           0.6610   -1.8960   28.2160 H         1 SUB1        0.150
     47 H          -0.2090   -1.4250   25.9470 H         1 SUB1        0.150
     48 H          -4.4340    6.6150   21.1690 H         1 SUB1        0.000
     49 H          -3.6610    4.8600   18.7880 H         1 SUB1        0.000
     50 H          -4.9520    6.1060   18.8490 H         1 SUB1        0.000
     51 H          -7.0990    5.5980   19.7650 H         1 SUB1        0.150
     52 H          -3.9380    2.7430   19.9840 H         1 SUB1        0.150
     53 H          -8.7220    3.8720   20.4170 H         1 SUB1        0.150
     54 H          -5.5600    1.0240   20.6540 H         1 SUB1        0.150
     55 H          -2.1960    4.6720   21.1950 H         1 SUB1        0.370
     56 H          -8.5780    1.4600   22.8580 H         1 SUB1        0.669
     57 H         -10.0050    1.3650   21.7910 H         1 SUB1        0.669
     58 H          -7.4500   -0.3350   19.8150 H         1 SUB1        0.669
     59 H          -9.1610    0.0690   19.5160 H         1 SUB1        0.669
     60 H          -4.9880    7.7040   19.5710 H         1 SUB1        0.000
     61 H          -4.4220    8.6540   18.1560 H         1 SUB1        0.000
     62 H          -4.3740    9.6470   21.0540 H         1 SUB1        0.000
     63 H          -5.6480   10.0570   19.8550 H         1 SUB1        0.000
     64 H          -3.8730   11.8160   19.9130 H         1 SUB1        0.000
     65 H          -3.8950   10.9780   18.3250 H         1 SUB1        0.000
     66 H          -2.0690   10.3420   20.7010 H         1 SUB1        0.000
     67 H          -1.5810   11.1550   19.1760 H         1 SUB1        0.000
     68 H          -2.0450    9.1160   17.9030 H         1 SUB1        0.000
     69 H          -0.9330    8.7390   19.2630 H         1 SUB1        0.000
@<TRIPOS>BOND
     1   15   14 1  
     2   16   15 1  
     3   16   17 2  
     4    1    2 2  
     5    1    3 2  
     6    1    5 1  
     7   14    1 1  
     8    5    6 ar 
     9    6    7 ar 
    10    7   13 ar 
    11    8    9 ar 
    12   13    8 ar 
    13    9   10 ar 
    14   11   10 ar 
    15   12   11 ar 
    16   13   12 ar 
    17   19   18 1  
    18   18   28 2  
    19   18   32 am 
    20   19   20 1  
    21   29   19 1  
    22   20   21 1  
    23   21   22 ar 
    24   22   24 ar 
    25   21   23 ar 
    26   23   25 ar 
    27   24   26 ar 
    28   25   26 ar 
    29   26   27 1  
    30   27   30 ar 
    31   27   31 ar 
    32   29   16 am 
    33   32   33 1  
    34   32   37 1  
    35   33   34 1  
    36   34   35 1  
    37   35   36 1  
    38   36   37 1  
    39   12    4 ar 
    40    5    4 ar 
    41   14   38 1  
    42   15   39 1  
    43   15   40 1  
    44    4   41 1  
    45    6   42 1  
    46    7   43 1  
    47    8   44 1  
    48    9   45 1  
    49   10   46 1  
    50   11   47 1  
    51   19   48 1  
    52   20   49 1  
    53   20   50 1  
    54   22   51 1  
    55   23   52 1  
    56   24   53 1  
    57   25   54 1  
    58   29   55 1  
    59   30   56 1  
    60   30   57 1  
    61   31   58 1  
    62   31   59 1  
    63   33   60 1  
    64   33   61 1  
    65   34   62 1  
    66   34   63 1  
    67   35   64 1  
    68   35   65 1  
    69   36   66 1  
    70   36   67 1  
    71   37   68 1  
    72   37   69 1  
@<TRIPOS>SUBSTRUCTURE
     1 SUB1        1 GROUP

### 
### Created by X-TOOL on Tue Dec  2 13:04:54 2003
### 

@<TRIPOS>MOLECULE
1ppc-ligand.1ppc.016
   69    72     1     0     0
SMALL
MMFF94_CHARGES


@<TRIPOS>ATOM
      1 S          -3.6030    2.7680   25.7010 S.o2      1 SUB1        1.447
      2 O1         -4.9260    2.0820   26.0640 O.2       1 SUB1       -0.650
      3 O2         -2.6590    1.7590   25.0530 O.2       1 SUB1       -0.650
      4 C1         -3.6670    3.7670   28.3100 C.ar      1 SUB1       -0.150
      5 C2         -2.9150    3.4620   27.2060 C.ar      1 SUB1       -0.009
      6 C3         -1.5760    3.7410   27.2150 C.ar      1 SUB1       -0.150
      7 C4         -1.0090    4.3740   28.2980 C.ar      1 SUB1       -0.150
      8 C5         -1.1790    5.2960   30.4740 C.ar      1 SUB1       -0.150
      9 C6         -1.9340    5.5730   31.5980 C.ar      1 SUB1       -0.150
     10 C7         -3.2840    5.2730   31.6190 C.ar      1 SUB1       -0.150
     11 C8         -3.8920    4.6870   30.5200 C.ar      1 SUB1       -0.150
     12 C9         -3.1180    4.3720   29.4200 C.ar      1 SUB1        0.000
     13 C10        -1.7800    4.6820   29.3950 C.ar      1 SUB1        0.000
     14 N          -3.8340    3.8760   24.4870 N.am      1 SUB1       -0.914
     15 CA         -2.6170    4.5190   24.0540 C.3       1 SUB1        0.417
     16 C          -2.5580    4.7960   22.5570 C.2       1 SUB1        0.569
     17 O          -1.6930    4.3030   21.8230 O.2       1 SUB1       -0.570
     18 C          -2.5460    7.0380   20.4250 C.2       1 SUB1        0.569
     19 CA         -3.7360    6.1730   20.8410 C.3       1 SUB1        0.361
     20 CB         -3.9120    5.0000   19.8640 C.3       1 SUB1        0.144
     21 CG         -5.2000    4.2310   20.0800 C.ar      1 SUB1       -0.144
     22 CD1        -5.1710    2.9000   20.4550 C.ar      1 SUB1       -0.150
     23 CD2        -6.4060    4.8860   19.9880 C.ar      1 SUB1       -0.150
     24 CE1        -6.3440    2.2140   20.7030 C.ar      1 SUB1       -0.150
     25 CE2        -7.5750    4.1930   20.2320 C.ar      1 SUB1       -0.150
     26 CZ         -7.5630    2.8570   20.6140 C.ar      1 SUB1       -0.022
     27 CF         -8.7640    2.2030   20.9230 C.cat     1 SUB1        0.731
     28 O          -1.3940    6.7050   20.7260 O.2       1 SUB1       -0.570
     29 N          -3.4790    5.7060   22.1960 N.am      1 SUB1       -0.730
     30 NG1        -9.5240    1.6610   19.9530 N.pl3     1 SUB1       -1.192
     31 NG2        -9.1040    2.0760   22.2110 N.pl3     1 SUB1       -1.192
     32 N1         -2.7690    8.1560   19.7160 N.am      1 SUB1       -0.660
     33 C2         -4.0680    8.4950   19.1580 C.3       1 SUB1        0.300
     34 C3         -4.4570    9.8440   19.7150 C.3       1 SUB1        0.000
     35 C4         -3.4600   10.8630   19.1830 C.3       1 SUB1        0.000
     36 C5         -2.0820   10.4360   19.6810 C.3       1 SUB1        0.000
     37 C6         -1.7020    9.0330   19.2550 C.3       1 SUB1        0.300
     38 H          -4.7300    4.0770   24.0930 H         1 SUB1        0.420
     39 HA1        -2.5240    5.4780   24.5870 H         1 SUB1        0.000
     40 HA2        -1.7690    3.8700   24.3190 H         1 SUB1        0.000
     41 H          -4.7240    3.5260   28.3100 H         1 SUB1        0.150
     42 H          -0.9600    3.4640   26.3680 H         1 SUB1        0.150
     43 H           0.0450    4.6300   28.2860 H         1 SUB1        0.150
     44 H          -0.1270    5.5580   30.4400 H         1 SUB1        0.150
     45 H          -1.4680    6.0270   32.4650 H         1 SUB1        0.150
     46 H          -3.8710    5.4980   32.5020 H         1 SUB1        0.150
     47 H          -4.9560    4.4810   30.5230 H         1 SUB1        0.150
     48 H          -4.6540    6.7810   20.8320 H         1 SUB1        0.000
     49 H          -3.0670    4.3080   19.9930 H         1 SUB1        0.000
     50 H          -3.9090    5.3950   18.8380 H         1 SUB1        0.000
     51 H          -4.2190    2.3910   20.5550 H         1 SUB1        0.150
     52 H          -6.4380    5.9380   19.7270 H         1 SUB1        0.150
     53 H          -6.3070    1.1640   20.9700 H         1 SUB1        0.150
     54 H          -8.5250    4.7040   20.1250 H         1 SUB1        0.150
     55 H          -4.0410    6.0980   22.9250 H         1 SUB1        0.370
     56 H          -9.9320    2.2610   19.2220 H         1 SUB1        0.669
     57 H          -9.6970    0.6460   19.9420 H         1 SUB1        0.669
     58 H          -8.3970    2.2160   22.9470 H         1 SUB1        0.669
     59 H         -10.0720    1.8370   22.4670 H         1 SUB1        0.669
     60 H          -4.8120    7.7390   19.4500 H         1 SUB1        0.000
     61 H          -4.0060    8.5430   18.0610 H         1 SUB1        0.000
     62 H          -4.4210    9.8220   20.8140 H         1 SUB1        0.000
     63 H          -5.4730   10.1080   19.3860 H         1 SUB1        0.000
     64 H          -3.7050   11.8660   19.5620 H         1 SUB1        0.000
     65 H          -3.4780   10.8720   18.0840 H         1 SUB1        0.000
     66 H          -2.0790   10.4810   20.7800 H         1 SUB1        0.000
     67 H          -1.3330   11.1370   19.2830 H         1 SUB1        0.000
     68 H          -1.6130    8.9790   18.1600 H         1 SUB1        0.000
     69 H          -0.7460    8.7420   19.7160 H         1 SUB1        0.000
@<TRIPOS>BOND
     1   15   14 1  
     2   16   15 1  
     3   16   17 2  
     4    1    2 2  
     5    1    3 2  
     6    1    5 1  
     7   14    1 1  
     8    5    6 ar 
     9    6    7 ar 
    10    7   13 ar 
    11    8    9 ar 
    12   13    8 ar 
    13    9   10 ar 
    14   11   10 ar 
    15   12   11 ar 
    16   13   12 ar 
    17   19   18 1  
    18   18   28 2  
    19   18   32 am 
    20   19   20 1  
    21   29   19 1  
    22   20   21 1  
    23   21   22 ar 
    24   22   24 ar 
    25   21   23 ar 
    26   23   25 ar 
    27   24   26 ar 
    28   25   26 ar 
    29   26   27 1  
    30   27   30 ar 
    31   27   31 ar 
    32   29   16 am 
    33   32   33 1  
    34   32   37 1  
    35   33   34 1  
    36   34   35 1  
    37   35   36 1  
    38   36   37 1  
    39   12    4 ar 
    40    5    4 ar 
    41   14   38 1  
    42   15   39 1  
    43   15   40 1  
    44    4   41 1  
    45    6   42 1  
    46    7   43 1  
    47    8   44 1  
    48    9   45 1  
    49   10   46 1  
    50   11   47 1  
    51   19   48 1  
    52   20   49 1  
    53   20   50 1  
    54   22   51 1  
    55   23   52 1  
    56   24   53 1  
    57   25   54 1  
    58   29   55 1  
    59   30   56 1  
    60   30   57 1  
    61   31   58 1  
    62   31   59 1  
    63   33   60 1  
    64   33   61 1  
    65   34   62 1  
    66   34   63 1  
    67   35   64 1  
    68   35   65 1  
    69   36   66 1  
    70   36   67 1  
    71   37   68 1  
    72   37   69 1  
@<TRIPOS>SUBSTRUCTURE
     1 SUB1        1 GROUP

### 
### Created by X-TOOL on Tue Dec  2 13:04:54 2003
### 

@<TRIPOS>MOLECULE
1ppc-ligand.1ppc.017
   69    72     1     0     0
SMALL
MMFF94_CHARGES


@<TRIPOS>ATOM
      1 S          -0.3880   -1.0040   17.4150 S.o2      1 SUB1        1.447
      2 O1         -1.2950   -1.8100   16.4770 O.2       1 SUB1       -0.650
      3 O2          0.1440    0.2270   16.6880 O.2       1 SUB1       -0.650
      4 C1          0.7300   -3.3680   18.4000 C.ar      1 SUB1       -0.150
      5 C2          0.9350   -2.0860   17.9600 C.ar      1 SUB1       -0.009
      6 C3          2.2020   -1.5720   17.9780 C.ar      1 SUB1       -0.150
      7 C4          3.2430   -2.3140   18.4880 C.ar      1 SUB1       -0.150
      8 C5          4.0860   -4.3230   19.4180 C.ar      1 SUB1       -0.150
      9 C6          3.8810   -5.6260   19.8320 C.ar      1 SUB1       -0.150
     10 C7          2.6120   -6.1740   19.7950 C.ar      1 SUB1       -0.150
     11 C8          1.5360   -5.4290   19.3400 C.ar      1 SUB1       -0.150
     12 C9          1.7610   -4.1440   18.8860 C.ar      1 SUB1        0.000
     13 C10         3.0180   -3.5960   18.9340 C.ar      1 SUB1        0.000
     14 N          -1.2720   -0.3380   18.6510 N.am      1 SUB1       -0.914
     15 CA         -0.4890    0.4840   19.5430 C.3       1 SUB1        0.417
     16 C          -1.2770    1.6030   20.2110 C.2       1 SUB1        0.569
     17 O          -2.0670    1.3970   21.1410 O.2       1 SUB1       -0.570
     18 C          -1.6890    4.0830   21.5110 C.2       1 SUB1        0.569
     19 CA         -1.6300    4.0640   19.9830 C.3       1 SUB1        0.361
     20 CB         -0.7740    5.2310   19.4660 C.3       1 SUB1        0.144
     21 CG         -1.5230    6.5470   19.4230 C.ar      1 SUB1       -0.144
     22 CD1        -2.4430    6.8660   20.4060 C.ar      1 SUB1       -0.150
     23 CD2        -1.2210    7.4700   18.4490 C.ar      1 SUB1       -0.150
     24 CE1        -3.0870    8.0880   20.3960 C.ar      1 SUB1       -0.150
     25 CE2        -1.8720    8.6870   18.4420 C.ar      1 SUB1       -0.150
     26 CZ         -2.7960    9.0240   19.4230 C.ar      1 SUB1       -0.022
     27 CF         -3.3860   10.2960   19.4260 C.cat     1 SUB1        0.731
     28 O          -0.6490    4.1090   22.1780 O.2       1 SUB1       -0.570
     29 N          -1.0740    2.7770   19.5880 N.am      1 SUB1       -0.730
     30 NG1        -4.5780   10.5030   20.0170 N.pl3     1 SUB1       -1.192
     31 NG2        -2.7050   11.3120   18.8840 N.pl3     1 SUB1       -1.192
     32 N1         -2.8870    4.0870   22.1170 N.am      1 SUB1       -0.660
     33 C2         -4.1390    4.2640   21.3980 C.3       1 SUB1        0.300
     34 C3         -4.9980    3.0570   21.6900 C.3       1 SUB1        0.000
     35 C4         -5.3260    3.0770   23.1750 C.3       1 SUB1        0.000
     36 C5         -3.9980    3.0040   23.9230 C.3       1 SUB1        0.000
     37 C6         -3.0480    4.1280   23.5640 C.3       1 SUB1        0.300
     38 H          -2.2530   -0.4910   18.7670 H         1 SUB1        0.420
     39 HA1        -0.0710   -0.1620   20.3290 H         1 SUB1        0.000
     40 HA2         0.3310    0.9360   18.9660 H         1 SUB1        0.000
     41 H          -0.2710   -3.7830   18.3660 H         1 SUB1        0.150
     42 H           2.3870   -0.5770   17.5900 H         1 SUB1        0.150
     43 H           4.2390   -1.8880   18.5370 H         1 SUB1        0.150
     44 H           5.0730   -3.8780   19.4740 H         1 SUB1        0.150
     45 H           4.7170   -6.2200   20.1860 H         1 SUB1        0.150
     46 H           2.4580   -7.1950   20.1260 H         1 SUB1        0.150
     47 H           0.5360   -5.8470   19.3410 H         1 SUB1        0.150
     48 H          -2.6470    4.1630   19.5740 H         1 SUB1        0.000
     49 H          -0.4330    4.9890   18.4490 H         1 SUB1        0.000
     50 H           0.0970    5.3460   20.1270 H         1 SUB1        0.000
     51 H          -2.6610    6.1500   21.1910 H         1 SUB1        0.150
     52 H          -0.4770    7.2430   17.6930 H         1 SUB1        0.150
     53 H          -3.8250    8.3130   21.1570 H         1 SUB1        0.150
     54 H          -1.6570    9.3970   17.6520 H         1 SUB1        0.150
     55 H          -0.4870    2.7660   18.7790 H         1 SUB1        0.370
     56 H          -4.7580   10.1260   20.9590 H         1 SUB1        0.669
     57 H          -5.3090   11.0370   19.5280 H         1 SUB1        0.669
     58 H          -3.2090   12.0700   18.4000 H         1 SUB1        0.669
     59 H          -1.6780   11.3370   18.9500 H         1 SUB1        0.669
     60 H          -3.9450    4.3360   20.3170 H         1 SUB1        0.000
     61 H          -4.6440    5.1790   21.7410 H         1 SUB1        0.000
     62 H          -4.4500    2.1360   21.4390 H         1 SUB1        0.000
     63 H          -5.9250    3.1040   21.1000 H         1 SUB1        0.000
     64 H          -5.9540    2.2130   23.4360 H         1 SUB1        0.000
     65 H          -5.8550    4.0050   23.4330 H         1 SUB1        0.000
     66 H          -3.5140    2.0460   23.6830 H         1 SUB1        0.000
     67 H          -4.2020    3.0510   25.0040 H         1 SUB1        0.000
     68 H          -3.4700    5.0960   23.8720 H         1 SUB1        0.000
     69 H          -2.0770    3.9770   24.0580 H         1 SUB1        0.000
@<TRIPOS>BOND
     1   15   14 1  
     2   16   15 1  
     3   16   17 2  
     4    1    2 2  
     5    1    3 2  
     6    1    5 1  
     7   14    1 1  
     8    5    6 ar 
     9    6    7 ar 
    10    7   13 ar 
    11    8    9 ar 
    12   13    8 ar 
    13    9   10 ar 
    14   11   10 ar 
    15   12   11 ar 
    16   13   12 ar 
    17   19   18 1  
    18   18   28 2  
    19   18   32 am 
    20   19   20 1  
    21   29   19 1  
    22   20   21 1  
    23   21   22 ar 
    24   22   24 ar 
    25   21   23 ar 
    26   23   25 ar 
    27   24   26 ar 
    28   25   26 ar 
    29   26   27 1  
    30   27   30 ar 
    31   27   31 ar 
    32   29   16 am 
    33   32   33 1  
    34   32   37 1  
    35   33   34 1  
    36   34   35 1  
    37   35   36 1  
    38   36   37 1  
    39   12    4 ar 
    40    5    4 ar 
    41   14   38 1  
    42   15   39 1  
    43   15   40 1  
    44    4   41 1  
    45    6   42 1  
    46    7   43 1  
    47    8   44 1  
    48    9   45 1  
    49   10   46 1  
    50   11   47 1  
    51   19   48 1  
    52   20   49 1  
    53   20   50 1  
    54   22   51 1  
    55   23   52 1  
    56   24   53 1  
    57   25   54 1  
    58   29   55 1  
    59   30   56 1  
    60   30   57 1  
    61   31   58 1  
    62   31   59 1  
    63   33   60 1  
    64   33   61 1  
    65   34   62 1  
    66   34   63 1  
    67   35   64 1  
    68   35   65 1  
    69   36   66 1  
    70   36   67 1  
    71   37   68 1  
    72   37   69 1  
@<TRIPOS>SUBSTRUCTURE
     1 SUB1        1 GROUP

### 
### Created by X-TOOL on Tue Dec  2 13:04:55 2003
### 

@<TRIPOS>MOLECULE
1ppc-ligand.1ppc.018
   69    72     1     0     0
SMALL
MMFF94_CHARGES


@<TRIPOS>ATOM
      1 S          -1.7340    3.8970   21.6220 S.o2      1 SUB1        1.447
      2 O1         -1.0620    2.8780   20.6930 O.2       1 SUB1       -0.650
      3 O2         -3.1140    3.3920   22.0300 O.2       1 SUB1       -0.650
      4 C1         -2.7430    6.4350   21.0310 C.ar      1 SUB1       -0.150
      5 C2         -1.8220    5.4610   20.7460 C.ar      1 SUB1       -0.009
      6 C3         -0.9500    5.6520   19.7110 C.ar      1 SUB1       -0.150
      7 C4         -1.0380    6.7830   18.9320 C.ar      1 SUB1       -0.150
      8 C5         -2.0240    8.8800   18.4390 C.ar      1 SUB1       -0.150
      9 C6         -2.9340    9.8750   18.7490 C.ar      1 SUB1       -0.150
     10 C7         -3.8060    9.7120   19.8100 C.ar      1 SUB1       -0.150
     11 C8         -3.7750    8.5580   20.5760 C.ar      1 SUB1       -0.150
     12 C9         -2.8320    7.5910   20.2860 C.ar      1 SUB1        0.000
     13 C10        -1.9750    7.7480   19.2250 C.ar      1 SUB1        0.000
     14 N          -0.9360    3.9770   23.0740 N.am      1 SUB1       -0.914
     15 CA         -1.5490    4.8770   24.0210 C.3       1 SUB1        0.417
     16 C          -1.8660    4.2410   25.3690 C.2       1 SUB1        0.569
     17 O          -1.2700    3.2420   25.7900 O.2       1 SUB1       -0.570
     18 C          -3.6190    5.8410   28.0230 C.2       1 SUB1        0.569
     19 CA         -3.4680    4.5230   27.2630 C.3       1 SUB1        0.361
     20 CB         -4.8260    3.8120   27.1480 C.3       1 SUB1        0.144
     21 CG         -5.4800    3.9910   25.7930 C.ar      1 SUB1       -0.144
     22 CD1        -5.1630    3.1490   24.7420 C.ar      1 SUB1       -0.150
     23 CD2        -6.4620    4.9400   25.6310 C.ar      1 SUB1       -0.150
     24 CE1        -5.7980    3.2770   23.5220 C.ar      1 SUB1       -0.150
     25 CE2        -7.0890    5.0670   24.4080 C.ar      1 SUB1       -0.150
     26 CZ         -6.7840    4.2270   23.3430 C.ar      1 SUB1       -0.022
     27 CF         -7.4900    4.3370   22.1370 C.cat     1 SUB1        0.731
     28 O          -4.5210    6.6330   27.7300 O.2       1 SUB1       -0.570
     29 N          -2.9190    4.8400   25.9510 N.am      1 SUB1       -0.730
     30 NG1        -8.7430    3.8600   22.0250 N.pl3     1 SUB1       -1.192
     31 NG2        -6.9110    4.9860   21.1200 N.pl3     1 SUB1       -1.192
     32 N1         -2.7670    6.1170   29.0220 N.am      1 SUB1       -0.660
     33 C2         -1.8200    5.1470   29.5490 C.3       1 SUB1        0.300
     34 C3         -0.4410    5.7450   29.4090 C.3       1 SUB1        0.000
     35 C4         -0.3780    6.9680   30.3110 C.3       1 SUB1        0.000
     36 C5         -1.4520    7.9350   29.8200 C.3       1 SUB1        0.000
     37 C6         -2.8420    7.3340   29.8190 C.3       1 SUB1        0.300
     38 H          -0.1090    3.4510   23.2750 H         1 SUB1        0.420
     39 HA1        -0.8640    5.7210   24.1890 H         1 SUB1        0.000
     40 HA2        -2.4880    5.2480   23.5860 H         1 SUB1        0.000
     41 H          -3.4200    6.2920   21.8650 H         1 SUB1        0.150
     42 H          -0.1860    4.9120   19.5030 H         1 SUB1        0.150
     43 H          -0.3710    6.9130   18.0870 H         1 SUB1        0.150
     44 H          -1.3600    8.9890   17.5900 H         1 SUB1        0.150
     45 H          -2.9630   10.7840   18.1600 H         1 SUB1        0.150
     46 H          -4.5190   10.4940   20.0440 H         1 SUB1        0.150
     47 H          -4.4790    8.4150   21.3880 H         1 SUB1        0.150
     48 H          -2.7690    3.8650   27.8010 H         1 SUB1        0.000
     49 H          -5.4990    4.2190   27.9170 H         1 SUB1        0.000
     50 H          -4.6750    2.7370   27.3240 H         1 SUB1        0.000
     51 H          -4.4090    2.3810   24.8780 H         1 SUB1        0.150
     52 H          -6.7420    5.5830   26.4580 H         1 SUB1        0.150
     53 H          -5.5200    2.6280   22.7000 H         1 SUB1        0.150
     54 H          -7.8370    5.8400   24.2740 H         1 SUB1        0.150
     55 H          -3.3680    5.5710   25.4370 H         1 SUB1        0.370
     56 H          -9.0150    3.3160   21.1940 H         1 SUB1        0.669
     57 H          -9.4310    4.0390   22.7700 H         1 SUB1        0.669
     58 H          -6.7430    6.0010   21.1840 H         1 SUB1        0.669
     59 H          -6.6320    4.4720   20.2730 H         1 SUB1        0.669
     60 H          -1.8850    4.2090   28.9770 H         1 SUB1        0.000
     61 H          -2.0390    4.9450   30.6090 H         1 SUB1        0.000
     62 H          -0.2630    6.0390   28.3640 H         1 SUB1        0.000
     63 H           0.3190    5.0120   29.7180 H         1 SUB1        0.000
     64 H           0.6140    7.4390   30.2430 H         1 SUB1        0.000
     65 H          -0.5770    6.6810   31.3530 H         1 SUB1        0.000
     66 H          -1.2030    8.2420   28.7940 H         1 SUB1        0.000
     67 H          -1.4540    8.8190   30.4760 H         1 SUB1        0.000
     68 H          -3.1540    7.0960   30.8470 H         1 SUB1        0.000
     69 H          -3.5600    8.0370   29.3720 H         1 SUB1        0.000
@<TRIPOS>BOND
     1   15   14 1  
     2   16   15 1  
     3   16   17 2  
     4    1    2 2  
     5    1    3 2  
     6    1    5 1  
     7   14    1 1  
     8    5    6 ar 
     9    6    7 ar 
    10    7   13 ar 
    11    8    9 ar 
    12   13    8 ar 
    13    9   10 ar 
    14   11   10 ar 
    15   12   11 ar 
    16   13   12 ar 
    17   19   18 1  
    18   18   28 2  
    19   18   32 am 
    20   19   20 1  
    21   29   19 1  
    22   20   21 1  
    23   21   22 ar 
    24   22   24 ar 
    25   21   23 ar 
    26   23   25 ar 
    27   24   26 ar 
    28   25   26 ar 
    29   26   27 1  
    30   27   30 ar 
    31   27   31 ar 
    32   29   16 am 
    33   32   33 1  
    34   32   37 1  
    35   33   34 1  
    36   34   35 1  
    37   35   36 1  
    38   36   37 1  
    39   12    4 ar 
    40    5    4 ar 
    41   14   38 1  
    42   15   39 1  
    43   15   40 1  
    44    4   41 1  
    45    6   42 1  
    46    7   43 1  
    47    8   44 1  
    48    9   45 1  
    49   10   46 1  
    50   11   47 1  
    51   19   48 1  
    52   20   49 1  
    53   20   50 1  
    54   22   51 1  
    55   23   52 1  
    56   24   53 1  
    57   25   54 1  
    58   29   55 1  
    59   30   56 1  
    60   30   57 1  
    61   31   58 1  
    62   31   59 1  
    63   33   60 1  
    64   33   61 1  
    65   34   62 1  
    66   34   63 1  
    67   35   64 1  
    68   35   65 1  
    69   36   66 1  
    70   36   67 1  
    71   37   68 1  
    72   37   69 1  
@<TRIPOS>SUBSTRUCTURE
     1 SUB1        1 GROUP

### 
### Created by X-TOOL on Tue Dec  2 13:04:55 2003
### 

@<TRIPOS>MOLECULE
1ppc-ligand.1ppc.019
   69    72     1     0     0
SMALL
MMFF94_CHARGES


@<TRIPOS>ATOM
      1 S          -1.6770    4.4340   21.2110 S.o2      1 SUB1        1.447
      2 O1         -0.6880    4.7280   22.3460 O.2       1 SUB1       -0.650
      3 O2         -0.9220    3.9140   19.9900 O.2       1 SUB1       -0.650
      4 C1         -2.0700    6.9510   20.0640 C.ar      1 SUB1       -0.150
      5 C2         -2.5690    5.9490   20.8550 C.ar      1 SUB1       -0.009
      6 C3         -3.7870    6.1180   21.4540 C.ar      1 SUB1       -0.150
      7 C4         -4.4710    7.3030   21.3090 C.ar      1 SUB1       -0.150
      8 C5         -4.6720    9.4710   20.3740 C.ar      1 SUB1       -0.150
      9 C6         -4.1810   10.4670   19.5500 C.ar      1 SUB1       -0.150
     10 C7         -2.9640   10.3040   18.9140 C.ar      1 SUB1       -0.150
     11 C8         -2.2280    9.1430   19.0890 C.ar      1 SUB1       -0.150
     12 C9         -2.7500    8.1360   19.8760 C.ar      1 SUB1        0.000
     13 C10        -3.9520    8.3030   20.5180 C.ar      1 SUB1        0.000
     14 N          -2.6510    3.1490   21.6040 N.am      1 SUB1       -0.914
     15 CA         -3.5700    2.7800   20.5550 C.3       1 SUB1        0.417
     16 C          -3.3260    1.3920   19.9740 C.2       1 SUB1        0.569
     17 O          -4.2490    0.6450   19.6250 O.2       1 SUB1       -0.570
     18 C          -0.7690    0.1950   18.1480 C.2       1 SUB1        0.569
     19 CA         -1.4210   -0.1460   19.4880 C.3       1 SUB1        0.361
     20 CB         -0.3770   -0.7150   20.4620 C.3       1 SUB1        0.144
     21 CG         -0.1560    0.1600   21.6780 C.ar      1 SUB1       -0.144
     22 CD1        -0.7060   -0.1810   22.9010 C.ar      1 SUB1       -0.150
     23 CD2         0.6720    1.2550   21.5870 C.ar      1 SUB1       -0.150
     24 CE1        -0.4610    0.5890   24.0220 C.ar      1 SUB1       -0.150
     25 CE2         0.9090    2.0230   22.7090 C.ar      1 SUB1       -0.150
     26 CZ          0.3660    1.6920   23.9450 C.ar      1 SUB1       -0.022
     27 CF          0.6850    2.4530   25.0790 C.cat     1 SUB1        0.731
     28 O          -0.1170    1.2370   18.0160 O.2       1 SUB1       -0.570
     29 N          -2.0190    1.0780   20.0020 N.am      1 SUB1       -0.730
     30 NG1         1.9670    2.6980   25.4070 N.pl3     1 SUB1       -1.192
     31 NG2        -0.3180    2.9840   25.7890 N.pl3     1 SUB1       -1.192
     32 N1         -0.9030   -0.6610   17.1220 N.am      1 SUB1       -0.660
     33 C2         -1.4770   -1.9890   17.2670 C.3       1 SUB1        0.300
     34 C3         -2.6500   -2.0750   16.3200 C.3       1 SUB1        0.000
     35 C4         -2.1050   -1.9730   14.9040 C.3       1 SUB1        0.000
     36 C5         -1.4050   -0.6210   14.7950 C.3       1 SUB1        0.000
     37 C6         -0.3010   -0.4360   15.8150 C.3       1 SUB1        0.300
     38 H          -2.6050    2.6770   22.4840 H         1 SUB1        0.420
     39 HA1        -4.5910    2.8080   20.9640 H         1 SUB1        0.000
     40 HA2        -3.4800    3.5150   19.7420 H         1 SUB1        0.000
     41 H          -1.1150    6.8080   19.5730 H         1 SUB1        0.150
     42 H          -4.2150    5.3160   22.0440 H         1 SUB1        0.150
     43 H          -5.4170    7.4490   21.8170 H         1 SUB1        0.150
     44 H          -5.6100    9.6070   20.9010 H         1 SUB1        0.150
     45 H          -4.7510   11.3780   19.4030 H         1 SUB1        0.150
     46 H          -2.5830   11.0910   18.2730 H         1 SUB1        0.150
     47 H          -1.2600    9.0270   18.6150 H         1 SUB1        0.150
     48 H          -2.2080   -0.9000   19.3330 H         1 SUB1        0.000
     49 H           0.5780   -0.8200   19.9280 H         1 SUB1        0.000
     50 H          -0.7180   -1.7050   20.8010 H         1 SUB1        0.000
     51 H          -1.3360   -1.0600   22.9800 H         1 SUB1        0.150
     52 H           1.1350    1.5120   20.6410 H         1 SUB1        0.150
     53 H          -0.9210    0.3250   24.9670 H         1 SUB1        0.150
     54 H           1.5330    2.9040   22.6250 H         1 SUB1        0.150
     55 H          -1.4010    1.7460   20.4150 H         1 SUB1        0.370
     56 H           2.5080    3.3990   24.8820 H         1 SUB1        0.669
     57 H           2.4060    2.1850   26.1840 H         1 SUB1        0.669
     58 H          -0.1330    3.3920   26.7160 H         1 SUB1        0.669
     59 H          -1.2750    2.9840   25.4080 H         1 SUB1        0.669
     60 H          -1.8150   -2.1420   18.3020 H         1 SUB1        0.000
     61 H          -0.7280   -2.7530   17.0100 H         1 SUB1        0.000
     62 H          -3.3500   -1.2480   16.5140 H         1 SUB1        0.000
     63 H          -3.1710   -3.0350   16.4530 H         1 SUB1        0.000
     64 H          -2.9270   -2.0330   14.1760 H         1 SUB1        0.000
     65 H          -1.3890   -2.7850   14.7150 H         1 SUB1        0.000
     66 H          -2.1530    0.1720   14.9420 H         1 SUB1        0.000
     67 H          -0.9700   -0.5320   13.7880 H         1 SUB1        0.000
     68 H           0.5050   -1.1640   15.6380 H         1 SUB1        0.000
     69 H           0.1050    0.5840   15.7540 H         1 SUB1        0.000
@<TRIPOS>BOND
     1   15   14 1  
     2   16   15 1  
     3   16   17 2  
     4    1    2 2  
     5    1    3 2  
     6    1    5 1  
     7   14    1 1  
     8    5    6 ar 
     9    6    7 ar 
    10    7   13 ar 
    11    8    9 ar 
    12   13    8 ar 
    13    9   10 ar 
    14   11   10 ar 
    15   12   11 ar 
    16   13   12 ar 
    17   19   18 1  
    18   18   28 2  
    19   18   32 am 
    20   19   20 1  
    21   29   19 1  
    22   20   21 1  
    23   21   22 ar 
    24   22   24 ar 
    25   21   23 ar 
    26   23   25 ar 
    27   24   26 ar 
    28   25   26 ar 
    29   26   27 1  
    30   27   30 ar 
    31   27   31 ar 
    32   29   16 am 
    33   32   33 1  
    34   32   37 1  
    35   33   34 1  
    36   34   35 1  
    37   35   36 1  
    38   36   37 1  
    39   12    4 ar 
    40    5    4 ar 
    41   14   38 1  
    42   15   39 1  
    43   15   40 1  
    44    4   41 1  
    45    6   42 1  
    46    7   43 1  
    47    8   44 1  
    48    9   45 1  
    49   10   46 1  
    50   11   47 1  
    51   19   48 1  
    52   20   49 1  
    53   20   50 1  
    54   22   51 1  
    55   23   52 1  
    56   24   53 1  
    57   25   54 1  
    58   29   55 1  
    59   30   56 1  
    60   30   57 1  
    61   31   58 1  
    62   31   59 1  
    63   33   60 1  
    64   33   61 1  
    65   34   62 1  
    66   34   63 1  
    67   35   64 1  
    68   35   65 1  
    69   36   66 1  
    70   36   67 1  
    71   37   68 1  
    72   37   69 1  
@<TRIPOS>SUBSTRUCTURE
     1 SUB1        1 GROUP

### 
### Created by X-TOOL on Tue Dec  2 13:04:55 2003
### 

@<TRIPOS>MOLECULE
1ppc-ligand.1ppc.020
   69    72     1     0     0
SMALL
MMFF94_CHARGES


@<TRIPOS>ATOM
      1 S          -1.8270    4.5430   22.0620 S.o2      1 SUB1        1.447
      2 O1         -1.0090    4.7390   23.3450 O.2       1 SUB1       -0.650
      3 O2         -1.1740    3.4710   21.1930 O.2       1 SUB1       -0.650
      4 C1         -3.0590    6.8790   21.1500 C.ar      1 SUB1       -0.150
      5 C2         -1.9160    6.1260   21.2230 C.ar      1 SUB1       -0.009
      6 C3         -0.7890    6.5650   20.5860 C.ar      1 SUB1       -0.150
      7 C4         -0.8230    7.7170   19.8340 C.ar      1 SUB1       -0.150
      8 C5         -1.9780    9.6190   19.0190 C.ar      1 SUB1       -0.150
      9 C6         -3.1240   10.3920   18.9740 C.ar      1 SUB1       -0.150
     10 C7         -4.2660    9.9790   19.6350 C.ar      1 SUB1       -0.150
     11 C8         -4.2750    8.7940   20.3530 C.ar      1 SUB1       -0.150
     12 C9         -3.1110    8.0540   20.4300 C.ar      1 SUB1        0.000
     13 C10        -1.9810    8.4570   19.7630 C.ar      1 SUB1        0.000
     14 N          -3.3050    3.8740   22.4090 N.am      1 SUB1       -0.914
     15 CA         -4.1060    3.6090   21.2380 C.3       1 SUB1        0.417
     16 C          -4.1710    2.1370   20.8490 C.2       1 SUB1        0.569
     17 O          -5.0750    1.3860   21.2360 O.2       1 SUB1       -0.570
     18 C          -1.6790    0.6050   18.5840 C.2       1 SUB1        0.569
     19 CA         -2.8340    0.4580   19.5750 C.3       1 SUB1        0.361
     20 CB         -2.4800   -0.5700   20.6610 C.3       1 SUB1        0.144
     21 CG         -1.3130   -0.1440   21.5280 C.ar      1 SUB1       -0.144
     22 CD1        -1.4960    0.7650   22.5560 C.ar      1 SUB1       -0.150
     23 CD2        -0.0830   -0.7310   21.3500 C.ar      1 SUB1       -0.150
     24 CE1        -0.4430    1.1140   23.3800 C.ar      1 SUB1       -0.150
     25 CE2         0.9660   -0.3740   22.1740 C.ar      1 SUB1       -0.150
     26 CZ          0.7990    0.5340   23.2120 C.ar      1 SUB1       -0.022
     27 CF          1.8670    0.8210   24.0740 C.cat     1 SUB1        0.731
     28 O          -0.8890    1.5500   18.6790 O.2       1 SUB1       -0.570
     29 N          -3.0840    1.7740   20.1460 N.am      1 SUB1       -0.730
     30 NG1         1.7820    1.8230   24.9690 N.pl3     1 SUB1       -1.192
     31 NG2         2.9470    0.0320   24.0300 N.pl3     1 SUB1       -1.192
     32 N1         -1.5270   -0.3170   17.6200 N.am      1 SUB1       -0.660
     33 C2         -2.2910   -1.5540   17.5770 C.3       1 SUB1        0.300
     34 C3         -3.0130   -1.5890   16.2510 C.3       1 SUB1        0.000
     35 C4         -1.9590   -1.6740   15.1570 C.3       1 SUB1        0.000
     36 C5         -1.0920   -0.4240   15.2810 C.3       1 SUB1        0.000
     37 C6         -0.4470   -0.2770   16.6440 C.3       1 SUB1        0.300
     38 H          -3.6110    3.6750   23.3390 H         1 SUB1        0.420
     39 HA1        -5.1310    3.9600   21.4340 H         1 SUB1        0.000
     40 HA2        -3.6820    4.1710   20.3940 H         1 SUB1        0.000
     41 H          -3.9460    6.5420   21.6730 H         1 SUB1        0.150
     42 H           0.1340    6.0050   20.6730 H         1 SUB1        0.150
     43 H           0.0620    8.0410   19.2970 H         1 SUB1        0.150
     44 H          -1.0890    9.9220   18.4770 H         1 SUB1        0.150
     45 H          -3.1260   11.3240   18.4190 H         1 SUB1        0.150
     46 H          -5.1620   10.5880   19.5910 H         1 SUB1        0.150
     47 H          -5.1790    8.4540   20.8450 H         1 SUB1        0.150
     48 H          -3.7340    0.1140   19.0430 H         1 SUB1        0.000
     49 H          -2.2230   -1.5210   20.1720 H         1 SUB1        0.000
     50 H          -3.3600   -0.7160   21.3050 H         1 SUB1        0.000
     51 H          -2.4730    1.2070   22.7150 H         1 SUB1        0.150
     52 H           0.0630   -1.4690   20.5690 H         1 SUB1        0.150
     53 H          -0.5940    1.8470   24.1640 H         1 SUB1        0.150
     54 H           1.9420   -0.8130   22.0070 H         1 SUB1        0.150
     55 H          -2.3820    2.4710   20.0030 H         1 SUB1        0.370
     56 H           1.8980    2.7990   24.6620 H         1 SUB1        0.669
     57 H           1.6020    1.6130   25.9610 H         1 SUB1        0.669
     58 H           3.3030   -0.4040   24.8920 H         1 SUB1        0.669
     59 H           3.4230   -0.1390   23.1330 H         1 SUB1        0.669
     60 H          -3.0170   -1.5760   18.4030 H         1 SUB1        0.000
     61 H          -1.6140   -2.4170   17.6610 H         1 SUB1        0.000
     62 H          -3.6120   -0.6750   16.1260 H         1 SUB1        0.000
     63 H          -3.6720   -2.4680   16.2060 H         1 SUB1        0.000
     64 H          -2.4410   -1.7030   14.1690 H         1 SUB1        0.000
     65 H          -1.3450   -2.5750   15.2930 H         1 SUB1        0.000
     66 H          -1.7210    0.4580   15.0950 H         1 SUB1        0.000
     67 H          -0.2960   -0.4740   14.5220 H         1 SUB1        0.000
     68 H           0.2570   -1.1040   16.8220 H         1 SUB1        0.000
     69 H           0.0890    0.6810   16.7090 H         1 SUB1        0.000
@<TRIPOS>BOND
     1   15   14 1  
     2   16   15 1  
     3   16   17 2  
     4    1    2 2  
     5    1    3 2  
     6    1    5 1  
     7   14    1 1  
     8    5    6 ar 
     9    6    7 ar 
    10    7   13 ar 
    11    8    9 ar 
    12   13    8 ar 
    13    9   10 ar 
    14   11   10 ar 
    15   12   11 ar 
    16   13   12 ar 
    17   19   18 1  
    18   18   28 2  
    19   18   32 am 
    20   19   20 1  
    21   29   19 1  
    22   20   21 1  
    23   21   22 ar 
    24   22   24 ar 
    25   21   23 ar 
    26   23   25 ar 
    27   24   26 ar 
    28   25   26 ar 
    29   26   27 1  
    30   27   30 ar 
    31   27   31 ar 
    32   29   16 am 
    33   32   33 1  
    34   32   37 1  
    35   33   34 1  
    36   34   35 1  
    37   35   36 1  
    38   36   37 1  
    39   12    4 ar 
    40    5    4 ar 
    41   14   38 1  
    42   15   39 1  
    43   15   40 1  
    44    4   41 1  
    45    6   42 1  
    46    7   43 1  
    47    8   44 1  
    48    9   45 1  
    49   10   46 1  
    50   11   47 1  
    51   19   48 1  
    52   20   49 1  
    53   20   50 1  
    54   22   51 1  
    55   23   52 1  
    56   24   53 1  
    57   25   54 1  
    58   29   55 1  
    59   30   56 1  
    60   30   57 1  
    61   31   58 1  
    62   31   59 1  
    63   33   60 1  
    64   33   61 1  
    65   34   62 1  
    66   34   63 1  
    67   35   64 1  
    68   35   65 1  
    69   36   66 1  
    70   36   67 1  
    71   37   68 1  
    72   37   69 1  
@<TRIPOS>SUBSTRUCTURE
     1 SUB1        1 GROUP

### 
### Created by X-TOOL on Tue Dec  2 13:04:55 2003
### 

@<TRIPOS>MOLECULE
1ppc-ligand.1ppc.021
   69    72     1     0     0
SMALL
MMFF94_CHARGES


@<TRIPOS>ATOM
      1 S          -4.5160    3.8690   22.0430 S.o2      1 SUB1        1.447
      2 O1         -5.5640    4.4450   23.0030 O.2       1 SUB1       -0.650
      3 O2         -3.4970    3.0450   22.8260 O.2       1 SUB1       -0.650
      4 C1         -4.2870    6.5030   21.1400 C.ar      1 SUB1       -0.150
      5 C2         -3.7500    5.2420   21.1800 C.ar      1 SUB1       -0.009
      6 C3         -2.5980    4.9880   20.4900 C.ar      1 SUB1       -0.150
      7 C4         -2.0210    5.9710   19.7190 C.ar      1 SUB1       -0.150
      8 C5         -1.9640    8.2000   18.9180 C.ar      1 SUB1       -0.150
      9 C6         -2.4900    9.4790   18.9060 C.ar      1 SUB1       -0.150
     10 C7         -3.6400    9.7640   19.6190 C.ar      1 SUB1       -0.150
     11 C8         -4.2720    8.7760   20.3580 C.ar      1 SUB1       -0.150
     12 C9         -3.7120    7.5150   20.4010 C.ar      1 SUB1        0.000
     13 C10        -2.5770    7.2290   19.6820 C.ar      1 SUB1        0.000
     14 N          -5.2020    2.7360   21.0430 N.am      1 SUB1       -0.914
     15 CA         -4.2580    2.1090   20.1490 C.3       1 SUB1        0.417
     16 C          -3.5230    0.9190   20.7550 C.2       1 SUB1        0.569
     17 O          -3.8630    0.4030   21.8260 O.2       1 SUB1       -0.570
     18 C          -1.6210   -1.4580   19.1070 C.2       1 SUB1        0.569
     19 CA         -1.5230   -0.5010   20.2950 C.3       1 SUB1        0.361
     20 CB         -0.0760   -0.0120   20.4700 C.3       1 SUB1        0.144
     21 CG          0.0720    1.0400   21.5490 C.ar      1 SUB1       -0.144
     22 CD1         0.7240    0.7460   22.7340 C.ar      1 SUB1       -0.150
     23 CD2        -0.3660    2.3230   21.3140 C.ar      1 SUB1       -0.150
     24 CE1         0.9050    1.7210   23.6970 C.ar      1 SUB1       -0.150
     25 CE2        -0.1860    3.2900   22.2820 C.ar      1 SUB1       -0.150
     26 CZ          0.4690    3.0120   23.4760 C.ar      1 SUB1       -0.022
     27 CF          0.6970    4.0350   24.4070 C.cat     1 SUB1        0.731
     28 O          -2.0720   -2.5990   19.2570 O.2       1 SUB1       -0.570
     29 N          -2.4320    0.6060   20.0350 N.am      1 SUB1       -0.730
     30 NG1         1.7530    4.8610   24.2790 N.pl3     1 SUB1       -1.192
     31 NG2        -0.1950    4.2110   25.3880 N.pl3     1 SUB1       -1.192
     32 N1         -1.2240   -1.0360   17.8960 N.am      1 SUB1       -0.660
     33 C2         -0.8790    0.3480   17.6120 C.3       1 SUB1        0.300
     34 C3          0.5370    0.3590   17.0880 C.3       1 SUB1        0.000
     35 C4          0.5410   -0.3860   15.7620 C.3       1 SUB1        0.000
     36 C5          0.0700   -1.8080   16.0510 C.3       1 SUB1        0.000
     37 C6         -1.2980   -1.8630   16.7000 C.3       1 SUB1        0.300
     38 H          -6.1760    2.5100   21.0580 H         1 SUB1        0.420
     39 HA1        -4.8030    1.7610   19.2590 H         1 SUB1        0.000
     40 HA2        -3.5120    2.8600   19.8520 H         1 SUB1        0.000
     41 H          -5.1890    6.7100   21.7040 H         1 SUB1        0.150
     42 H          -2.1370    4.0090   20.5500 H         1 SUB1        0.150
     43 H          -1.1290    5.7550   19.1420 H         1 SUB1        0.150
     44 H          -1.0810    7.9640   18.3360 H         1 SUB1        0.150
     45 H          -2.0010   10.2600   18.3350 H         1 SUB1        0.150
     46 H          -4.0500   10.7670   19.6000 H         1 SUB1        0.150
     47 H          -5.1910    8.9900   20.8920 H         1 SUB1        0.150
     48 H          -1.8340   -1.0200   21.2140 H         1 SUB1        0.000
     49 H           0.2660    0.4150   19.5160 H         1 SUB1        0.000
     50 H           0.5550   -0.8740   20.7330 H         1 SUB1        0.000
     51 H           1.0950   -0.2580   22.9080 H         1 SUB1        0.150
     52 H          -0.8480    2.5720   20.3750 H         1 SUB1        0.150
     53 H           1.3930    1.4690   24.6310 H         1 SUB1        0.150
     54 H          -0.5640    4.2900   22.1070 H         1 SUB1        0.150
     55 H          -2.2260    1.1870   19.2470 H         1 SUB1        0.370
     56 H           2.6160    4.6800   24.8120 H         1 SUB1        0.669
     57 H           1.6970    5.6740   23.6500 H         1 SUB1        0.669
     58 H          -0.3660    3.4580   26.0710 H         1 SUB1        0.669
     59 H          -0.7120    5.0990   25.4610 H         1 SUB1        0.669
     60 H          -0.9460    0.9490   18.5320 H         1 SUB1        0.000
     61 H          -1.5640    0.7590   16.8560 H         1 SUB1        0.000
     62 H           1.2060   -0.1440   17.8030 H         1 SUB1        0.000
     63 H           0.8740    1.3950   16.9380 H         1 SUB1        0.000
     64 H           1.5560   -0.4020   15.3400 H         1 SUB1        0.000
     65 H          -0.1430    0.1020   15.0530 H         1 SUB1        0.000
     66 H           0.7960   -2.2860   16.7250 H         1 SUB1        0.000
     67 H           0.0290   -2.3630   15.1020 H         1 SUB1        0.000
     68 H          -2.0610   -1.4690   16.0120 H         1 SUB1        0.000
     69 H          -1.5480   -2.9000   16.9700 H         1 SUB1        0.000
@<TRIPOS>BOND
     1   15   14 1  
     2   16   15 1  
     3   16   17 2  
     4    1    2 2  
     5    1    3 2  
     6    1    5 1  
     7   14    1 1  
     8    5    6 ar 
     9    6    7 ar 
    10    7   13 ar 
    11    8    9 ar 
    12   13    8 ar 
    13    9   10 ar 
    14   11   10 ar 
    15   12   11 ar 
    16   13   12 ar 
    17   19   18 1  
    18   18   28 2  
    19   18   32 am 
    20   19   20 1  
    21   29   19 1  
    22   20   21 1  
    23   21   22 ar 
    24   22   24 ar 
    25   21   23 ar 
    26   23   25 ar 
    27   24   26 ar 
    28   25   26 ar 
    29   26   27 1  
    30   27   30 ar 
    31   27   31 ar 
    32   29   16 am 
    33   32   33 1  
    34   32   37 1  
    35   33   34 1  
    36   34   35 1  
    37   35   36 1  
    38   36   37 1  
    39   12    4 ar 
    40    5    4 ar 
    41   14   38 1  
    42   15   39 1  
    43   15   40 1  
    44    4   41 1  
    45    6   42 1  
    46    7   43 1  
    47    8   44 1  
    48    9   45 1  
    49   10   46 1  
    50   11   47 1  
    51   19   48 1  
    52   20   49 1  
    53   20   50 1  
    54   22   51 1  
    55   23   52 1  
    56   24   53 1  
    57   25   54 1  
    58   29   55 1  
    59   30   56 1  
    60   30   57 1  
    61   31   58 1  
    62   31   59 1  
    63   33   60 1  
    64   33   61 1  
    65   34   62 1  
    66   34   63 1  
    67   35   64 1  
    68   35   65 1  
    69   36   66 1  
    70   36   67 1  
    71   37   68 1  
    72   37   69 1  
@<TRIPOS>SUBSTRUCTURE
     1 SUB1        1 GROUP

### 
### Created by X-TOOL on Tue Dec  2 13:04:55 2003
### 

@<TRIPOS>MOLECULE
1ppc-ligand.1ppc.022
   69    72     1     0     0
SMALL
MMFF94_CHARGES


@<TRIPOS>ATOM
      1 S          -2.1190    4.1030   22.1170 S.o2      1 SUB1        1.447
      2 O1         -2.2030    4.2890   23.6370 O.2       1 SUB1       -0.650
      3 O2         -0.8570    3.3230   21.7610 O.2       1 SUB1       -0.650
      4 C1         -3.2850    6.4340   21.1110 C.ar      1 SUB1       -0.150
      5 C2         -2.1360    5.7320   21.3650 C.ar      1 SUB1       -0.009
      6 C3         -0.9350    6.2630   20.9860 C.ar      1 SUB1       -0.150
      7 C4         -0.8900    7.4590   20.3070 C.ar      1 SUB1       -0.150
      8 C5         -1.9750    9.3540   19.3880 C.ar      1 SUB1       -0.150
      9 C6         -3.1330   10.0750   19.1620 C.ar      1 SUB1       -0.150
     10 C7         -4.3550    9.5680   19.5620 C.ar      1 SUB1       -0.150
     11 C8         -4.4330    8.3390   20.1980 C.ar      1 SUB1       -0.150
     12 C9         -3.2660    7.6500   20.4610 C.ar      1 SUB1        0.000
     13 C10        -2.0540    8.1480   20.0520 C.ar      1 SUB1        0.000
     14 N          -3.3260    3.0970   21.5840 N.am      1 SUB1       -0.914
     15 CA         -3.2720    2.8320   20.1670 C.3       1 SUB1        0.417
     16 C          -2.7740    1.4360   19.8130 C.2       1 SUB1        0.569
     17 O          -3.5380    0.4720   19.6760 O.2       1 SUB1       -0.570
     18 C          -0.0470    0.4830   18.0420 C.2       1 SUB1        0.569
     19 CA         -0.6180    0.2360   19.4390 C.3       1 SUB1        0.361
     20 CB          0.5190    0.0230   20.4510 C.3       1 SUB1        0.144
     21 CG          0.0240   -0.2200   21.8620 C.ar      1 SUB1       -0.144
     22 CD1        -0.3850   -1.4810   22.2570 C.ar      1 SUB1       -0.150
     23 CD2         0.0650    0.8010   22.7830 C.ar      1 SUB1       -0.150
     24 CE1        -0.7860   -1.7140   23.5580 C.ar      1 SUB1       -0.150
     25 CE2        -0.3420    0.5630   24.0800 C.ar      1 SUB1       -0.150
     26 CZ         -0.7530   -0.6990   24.4930 C.ar      1 SUB1       -0.022
     27 CF         -1.0920   -0.9220   25.8350 C.cat     1 SUB1        0.731
     28 O           0.1930    1.6330   17.6580 O.2       1 SUB1       -0.570
     29 N          -1.4310    1.3930   19.7850 N.am      1 SUB1       -0.730
     30 NG1        -1.0120    0.0690   26.7420 N.pl3     1 SUB1       -1.192
     31 NG2        -1.5600   -2.1280   26.1790 N.pl3     1 SUB1       -1.192
     32 N1          0.2030   -0.5690   17.2460 N.am      1 SUB1       -0.660
     33 C2          0.1380   -1.9460   17.7070 C.3       1 SUB1        0.300
     34 C3         -0.8620   -2.6640   16.8320 C.3       1 SUB1        0.000
     35 C4         -0.3000   -2.6900   15.4190 C.3       1 SUB1        0.000
     36 C5         -0.1290   -1.2370   14.9840 C.3       1 SUB1        0.000
     37 C6          0.7660   -0.4390   15.9090 C.3       1 SUB1        0.300
     38 H          -4.0240    2.7120   22.1880 H         1 SUB1        0.420
     39 HA1        -4.2850    2.9530   19.7540 H         1 SUB1        0.000
     40 HA2        -2.5970    3.5660   19.7030 H         1 SUB1        0.000
     41 H          -4.2360    6.0230   21.4310 H         1 SUB1        0.150
     42 H          -0.0150    5.7410   21.2210 H         1 SUB1        0.150
     43 H           0.0610    7.8580   19.9720 H         1 SUB1        0.150
     44 H          -1.0170    9.7330   19.0480 H         1 SUB1        0.150
     45 H          -3.0820   11.0400   18.6700 H         1 SUB1        0.150
     46 H          -5.2590   10.1360   19.3770 H         1 SUB1        0.150
     47 H          -5.3940    7.9260   20.4840 H         1 SUB1        0.150
     48 H          -1.2510   -0.6640   19.4240 H         1 SUB1        0.000
     49 H           1.1570    0.9190   20.4540 H         1 SUB1        0.000
     50 H           1.1120   -0.8470   20.1340 H         1 SUB1        0.000
     51 H          -0.3900   -2.2940   21.5390 H         1 SUB1        0.150
     52 H           0.4160    1.7850   22.4920 H         1 SUB1        0.150
     53 H          -1.1300   -2.7010   23.8470 H         1 SUB1        0.150
     54 H          -0.3420    1.3790   24.7930 H         1 SUB1        0.150
     55 H          -0.9450    2.2340   20.0240 H         1 SUB1        0.370
     56 H          -0.8220   -0.1500   27.7300 H         1 SUB1        0.669
     57 H          -1.1400    1.0480   26.4480 H         1 SUB1        0.669
     58 H          -2.4990   -2.4230   25.8730 H         1 SUB1        0.669
     59 H          -0.9820   -2.7610   26.7490 H         1 SUB1        0.669
     60 H          -0.1890   -1.9760   18.7570 H         1 SUB1        0.000
     61 H           1.1260   -2.4200   17.6170 H         1 SUB1        0.000
     62 H          -1.8240   -2.1300   16.8450 H         1 SUB1        0.000
     63 H          -1.0100   -3.6920   17.1960 H         1 SUB1        0.000
     64 H          -0.9970   -3.2070   14.7440 H         1 SUB1        0.000
     65 H           0.6710   -3.2050   15.4080 H         1 SUB1        0.000
     66 H          -1.1200   -0.7610   14.9600 H         1 SUB1        0.000
     67 H           0.3090   -1.2230   13.9750 H         1 SUB1        0.000
     68 H           1.7900   -0.8410   15.8880 H         1 SUB1        0.000
     69 H           0.7810    0.6180   15.6040 H         1 SUB1        0.000
@<TRIPOS>BOND
     1   15   14 1  
     2   16   15 1  
     3   16   17 2  
     4    1    2 2  
     5    1    3 2  
     6    1    5 1  
     7   14    1 1  
     8    5    6 ar 
     9    6    7 ar 
    10    7   13 ar 
    11    8    9 ar 
    12   13    8 ar 
    13    9   10 ar 
    14   11   10 ar 
    15   12   11 ar 
    16   13   12 ar 
    17   19   18 1  
    18   18   28 2  
    19   18   32 am 
    20   19   20 1  
    21   29   19 1  
    22   20   21 1  
    23   21   22 ar 
    24   22   24 ar 
    25   21   23 ar 
    26   23   25 ar 
    27   24   26 ar 
    28   25   26 ar 
    29   26   27 1  
    30   27   30 ar 
    31   27   31 ar 
    32   29   16 am 
    33   32   33 1  
    34   32   37 1  
    35   33   34 1  
    36   34   35 1  
    37   35   36 1  
    38   36   37 1  
    39   12    4 ar 
    40    5    4 ar 
    41   14   38 1  
    42   15   39 1  
    43   15   40 1  
    44    4   41 1  
    45    6   42 1  
    46    7   43 1  
    47    8   44 1  
    48    9   45 1  
    49   10   46 1  
    50   11   47 1  
    51   19   48 1  
    52   20   49 1  
    53   20   50 1  
    54   22   51 1  
    55   23   52 1  
    56   24   53 1  
    57   25   54 1  
    58   29   55 1  
    59   30   56 1  
    60   30   57 1  
    61   31   58 1  
    62   31   59 1  
    63   33   60 1  
    64   33   61 1  
    65   34   62 1  
    66   34   63 1  
    67   35   64 1  
    68   35   65 1  
    69   36   66 1  
    70   36   67 1  
    71   37   68 1  
    72   37   69 1  
@<TRIPOS>SUBSTRUCTURE
     1 SUB1        1 GROUP

### 
### Created by X-TOOL on Tue Dec  2 13:04:55 2003
### 

@<TRIPOS>MOLECULE
1ppc-ligand.1ppc.023
   69    72     1     0     0
SMALL
MMFF94_CHARGES


@<TRIPOS>ATOM
      1 S          -2.9280    3.7060   22.6380 S.o2      1 SUB1        1.447
      2 O1         -3.8400    4.0750   23.8160 O.2       1 SUB1       -0.650
      3 O2         -1.6850    2.9870   23.1550 O.2       1 SUB1       -0.650
      4 C1         -3.4570    6.1010   21.3010 C.ar      1 SUB1       -0.150
      5 C2         -2.5170    5.2200   21.7690 C.ar      1 SUB1       -0.009
      6 C3         -1.1940    5.4660   21.5240 C.ar      1 SUB1       -0.150
      7 C4         -0.8210    6.5530   20.7670 C.ar      1 SUB1       -0.150
      8 C5         -1.3710    8.5170   19.5610 C.ar      1 SUB1       -0.150
      9 C6         -2.3190    9.4200   19.1180 C.ar      1 SUB1       -0.150
     10 C7         -3.6590    9.2040   19.3790 C.ar      1 SUB1       -0.150
     11 C8         -4.0670    8.0860   20.0900 C.ar      1 SUB1       -0.150
     12 C9         -3.1070    7.2150   20.5680 C.ar      1 SUB1        0.000
     13 C10        -1.7780    7.4240   20.2970 C.ar      1 SUB1        0.000
     14 N          -3.6430    2.5490   21.6880 N.am      1 SUB1       -0.914
     15 CA         -2.8140    2.1120   20.5900 C.3       1 SUB1        0.417
     16 C          -2.7250    0.5970   20.4420 C.2       1 SUB1        0.569
     17 O          -3.7120   -0.1400   20.5500 O.2       1 SUB1       -0.570
     18 C           0.1760   -1.1140   19.1060 C.2       1 SUB1        0.569
     19 CA         -0.9990   -1.1690   20.0830 C.3       1 SUB1        0.361
     20 CB         -0.5670   -1.8310   21.4020 C.3       1 SUB1        0.144
     21 CG         -0.1140   -0.8340   22.4490 C.ar      1 SUB1       -0.144
     22 CD1         1.1290   -0.2330   22.3570 C.ar      1 SUB1       -0.150
     23 CD2        -0.9800   -0.4570   23.4490 C.ar      1 SUB1       -0.150
     24 CE1         1.5210    0.7150   23.2820 C.ar      1 SUB1       -0.150
     25 CE2        -0.5800    0.4860   24.3730 C.ar      1 SUB1       -0.150
     26 CZ          0.6640    1.1020   24.2940 C.ar      1 SUB1       -0.022
     27 CF          1.0100    2.1070   25.2070 C.cat     1 SUB1        0.731
     28 O           1.3230   -0.9070   19.5160 O.2       1 SUB1       -0.570
     29 N          -1.4500    0.1990   20.2950 N.am      1 SUB1       -0.730
     30 NG1         0.4050    3.3090   25.1730 N.pl3     1 SUB1       -1.192
     31 NG2         1.9110    1.8210   26.1550 N.pl3     1 SUB1       -1.192
     32 N1         -0.0560   -1.3090   17.7980 N.am      1 SUB1       -0.660
     33 C2         -1.3380   -1.7570   17.2780 C.3       1 SUB1        0.300
     34 C3         -1.8080   -0.7170   16.2870 C.3       1 SUB1        0.000
     35 C4         -0.8270   -0.7160   15.1250 C.3       1 SUB1        0.000
     36 C5          0.5400   -0.3540   15.6990 C.3       1 SUB1        0.000
     37 C6          0.9970   -1.2970   16.7920 C.3       1 SUB1        0.300
     38 H          -4.5600    2.1900   21.8580 H         1 SUB1        0.420
     39 HA1        -3.2260    2.5260   19.6590 H         1 SUB1        0.000
     40 HA2        -1.7980    2.5030   20.7470 H         1 SUB1        0.000
     41 H          -4.5040    5.9170   21.5130 H         1 SUB1        0.150
     42 H          -0.4380    4.8030   21.9270 H         1 SUB1        0.150
     43 H           0.2260    6.7230   20.5410 H         1 SUB1        0.150
     44 H          -0.3220    8.6650   19.3320 H         1 SUB1        0.150
     45 H          -2.0110   10.3010   18.5640 H         1 SUB1        0.150
     46 H          -4.3980    9.9140   19.0240 H         1 SUB1        0.150
     47 H          -5.1200    7.8990   20.2680 H         1 SUB1        0.150
     48 H          -1.8170   -1.7590   19.6430 H         1 SUB1        0.000
     49 H           0.2640   -2.5190   21.1910 H         1 SUB1        0.000
     50 H          -1.4190   -2.3980   21.8040 H         1 SUB1        0.000
     51 H           1.8010   -0.5090   21.5520 H         1 SUB1        0.150
     52 H          -1.9680   -0.8980   23.5110 H         1 SUB1        0.150
     53 H           2.5080    1.1580   23.2140 H         1 SUB1        0.150
     54 H          -1.2510    0.7540   25.1800 H         1 SUB1        0.150
     55 H          -0.7450    0.9080   20.3360 H         1 SUB1        0.370
     56 H           0.1100    3.7630   26.0490 H         1 SUB1        0.669
     57 H           0.2370    3.7750   24.2700 H         1 SUB1        0.669
     58 H           1.6350    1.8310   27.1470 H         1 SUB1        0.669
     59 H           2.8790    1.5910   25.8920 H         1 SUB1        0.669
     60 H          -2.0650   -1.8520   18.0980 H         1 SUB1        0.000
     61 H          -1.2210   -2.7290   16.7770 H         1 SUB1        0.000
     62 H          -1.8260    0.2740   16.7650 H         1 SUB1        0.000
     63 H          -2.8150   -0.9700   15.9270 H         1 SUB1        0.000
     64 H          -1.1300    0.0290   14.3740 H         1 SUB1        0.000
     65 H          -0.7890   -1.7110   14.6600 H         1 SUB1        0.000
     66 H           0.4860    0.6630   16.1150 H         1 SUB1        0.000
     67 H           1.2800   -0.3780   14.8850 H         1 SUB1        0.000
     68 H           1.1440   -2.3080   16.3850 H         1 SUB1        0.000
     69 H           1.9390   -0.9400   17.2330 H         1 SUB1        0.000
@<TRIPOS>BOND
     1   15   14 1  
     2   16   15 1  
     3   16   17 2  
     4    1    2 2  
     5    1    3 2  
     6    1    5 1  
     7   14    1 1  
     8    5    6 ar 
     9    6    7 ar 
    10    7   13 ar 
    11    8    9 ar 
    12   13    8 ar 
    13    9   10 ar 
    14   11   10 ar 
    15   12   11 ar 
    16   13   12 ar 
    17   19   18 1  
    18   18   28 2  
    19   18   32 am 
    20   19   20 1  
    21   29   19 1  
    22   20   21 1  
    23   21   22 ar 
    24   22   24 ar 
    25   21   23 ar 
    26   23   25 ar 
    27   24   26 ar 
    28   25   26 ar 
    29   26   27 1  
    30   27   30 ar 
    31   27   31 ar 
    32   29   16 am 
    33   32   33 1  
    34   32   37 1  
    35   33   34 1  
    36   34   35 1  
    37   35   36 1  
    38   36   37 1  
    39   12    4 ar 
    40    5    4 ar 
    41   14   38 1  
    42   15   39 1  
    43   15   40 1  
    44    4   41 1  
    45    6   42 1  
    46    7   43 1  
    47    8   44 1  
    48    9   45 1  
    49   10   46 1  
    50   11   47 1  
    51   19   48 1  
    52   20   49 1  
    53   20   50 1  
    54   22   51 1  
    55   23   52 1  
    56   24   53 1  
    57   25   54 1  
    58   29   55 1  
    59   30   56 1  
    60   30   57 1  
    61   31   58 1  
    62   31   59 1  
    63   33   60 1  
    64   33   61 1  
    65   34   62 1  
    66   34   63 1  
    67   35   64 1  
    68   35   65 1  
    69   36   66 1  
    70   36   67 1  
    71   37   68 1  
    72   37   69 1  
@<TRIPOS>SUBSTRUCTURE
     1 SUB1        1 GROUP

### 
### Created by X-TOOL on Tue Dec  2 13:04:55 2003
### 

@<TRIPOS>MOLECULE
1ppc-ligand.1ppc.024
   69    72     1     0     0
SMALL
MMFF94_CHARGES


@<TRIPOS>ATOM
      1 S          -2.4490    0.3280   19.6540 S.o2      1 SUB1        1.447
      2 O1         -3.8980   -0.1700   19.5790 O.2       1 SUB1       -0.650
      3 O2         -2.4340    1.8410   19.8520 O.2       1 SUB1       -0.650
      4 C1         -2.1630   -1.0340   17.2310 C.ar      1 SUB1       -0.150
      5 C2         -1.6230   -0.1600   18.1380 C.ar      1 SUB1       -0.009
      6 C3         -0.3680    0.3360   17.9170 C.ar      1 SUB1       -0.150
      7 C4          0.3610   -0.0850   16.8290 C.ar      1 SUB1       -0.150
      8 C5          0.5550   -1.3570   14.8400 C.ar      1 SUB1       -0.150
      9 C6         -0.0050   -2.2140   13.9100 C.ar      1 SUB1       -0.150
     10 C7         -1.2840   -2.7050   14.1010 C.ar      1 SUB1       -0.150
     11 C8         -2.0180   -2.3410   15.2190 C.ar      1 SUB1       -0.150
     12 C9         -1.4670   -1.4480   16.1160 C.ar      1 SUB1        0.000
     13 C10        -0.1930   -0.9700   15.9330 C.ar      1 SUB1        0.000
     14 N          -1.7130   -0.2220   21.0360 N.am      1 SUB1       -0.914
     15 CA         -0.3620    0.2580   21.2000 C.3       1 SUB1        0.417
     16 C          -0.2100    1.7630   21.0200 C.2       1 SUB1        0.569
     17 O           0.5380    2.2590   20.1680 O.2       1 SUB1       -0.570
     18 C          -2.4420    4.1930   22.5130 C.2       1 SUB1        0.569
     19 CA         -1.0140    3.8830   22.0640 C.3       1 SUB1        0.361
     20 CB         -0.0010    4.4590   23.0670 C.3       1 SUB1        0.144
     21 CG          0.2370    3.5550   24.2600 C.ar      1 SUB1       -0.144
     22 CD1         1.3280    2.7050   24.2920 C.ar      1 SUB1       -0.150
     23 CD2        -0.5880    3.6450   25.3570 C.ar      1 SUB1       -0.150
     24 CE1         1.5750    1.9200   25.4010 C.ar      1 SUB1       -0.150
     25 CE2        -0.3390    2.8540   26.4600 C.ar      1 SUB1       -0.150
     26 CZ          0.7540    1.9970   26.5090 C.ar      1 SUB1       -0.022
     27 CF          1.0180    1.2600   27.6730 C.cat     1 SUB1        0.731
     28 O          -3.0420    3.4230   23.2700 O.2       1 SUB1       -0.570
     29 N          -0.8970    2.4360   21.9600 N.am      1 SUB1       -0.730
     30 NG1         1.7930    1.7670   28.6500 N.pl3     1 SUB1       -1.192
     31 NG2         0.4280    0.0680   27.8160 N.pl3     1 SUB1       -1.192
     32 N1         -3.0290    5.3220   22.0830 N.am      1 SUB1       -0.660
     33 C2         -2.3140    6.3630   21.3640 C.3       1 SUB1        0.300
     34 C3         -3.0180    6.5590   20.0420 C.3       1 SUB1        0.000
     35 C4         -4.4100    7.0940   20.3390 C.3       1 SUB1        0.000
     36 C5         -5.1160    6.0420   21.1910 C.3       1 SUB1        0.000
     37 C6         -4.3760    5.7160   22.4720 C.3       1 SUB1        0.300
     38 H          -2.1630   -0.8280   21.6910 H         1 SUB1        0.420
     39 HA1        -0.0230   -0.0050   22.2130 H         1 SUB1        0.000
     40 HA2         0.2760   -0.2450   20.4580 H         1 SUB1        0.000
     41 H          -3.1660   -1.4110   17.3960 H         1 SUB1        0.150
     42 H           0.0540    1.0630   18.6010 H         1 SUB1        0.150
     43 H           1.3710    0.2790   16.6790 H         1 SUB1        0.150
     44 H           1.5680   -0.9940   14.7110 H         1 SUB1        0.150
     45 H           0.5590   -2.5020   13.0300 H         1 SUB1        0.150
     46 H          -1.7150   -3.3800   13.3710 H         1 SUB1        0.150
     47 H          -3.0080   -2.7500   15.3850 H         1 SUB1        0.150
     48 H          -0.8310    4.3360   21.0780 H         1 SUB1        0.000
     49 H          -0.3800    5.4250   23.4310 H         1 SUB1        0.000
     50 H           0.9560    4.6130   22.5490 H         1 SUB1        0.000
     51 H           1.9950    2.6550   23.4380 H         1 SUB1        0.150
     52 H          -1.4260    4.3320   25.3550 H         1 SUB1        0.150
     53 H           2.4180    1.2390   25.4010 H         1 SUB1        0.150
     54 H          -1.0120    2.9010   27.3080 H         1 SUB1        0.150
     55 H          -1.3720    1.8910   22.6510 H         1 SUB1        0.370
     56 H           2.7820    1.9820   28.4640 H         1 SUB1        0.669
     57 H           1.3950    1.9400   29.5840 H         1 SUB1        0.669
     58 H          -0.0260   -0.1790   28.7070 H         1 SUB1        0.669
     59 H           0.4280   -0.6040   27.0350 H         1 SUB1        0.669
     60 H          -1.2710    6.0560   21.1940 H         1 SUB1        0.000
     61 H          -2.3300    7.2990   21.9420 H         1 SUB1        0.000
     62 H          -3.0900    5.5990   19.5090 H         1 SUB1        0.000
     63 H          -2.4630    7.2810   19.4240 H         1 SUB1        0.000
     64 H          -4.9630    7.2540   19.4020 H         1 SUB1        0.000
     65 H          -4.3420    8.0420   20.8910 H         1 SUB1        0.000
     66 H          -5.2120    5.1200   20.5990 H         1 SUB1        0.000
     67 H          -6.1170    6.4160   21.4510 H         1 SUB1        0.000
     68 H          -4.3390    6.6000   23.1250 H         1 SUB1        0.000
     69 H          -4.8760    4.8910   22.9990 H         1 SUB1        0.000
@<TRIPOS>BOND
     1   15   14 1  
     2   16   15 1  
     3   16   17 2  
     4    1    2 2  
     5    1    3 2  
     6    1    5 1  
     7   14    1 1  
     8    5    6 ar 
     9    6    7 ar 
    10    7   13 ar 
    11    8    9 ar 
    12   13    8 ar 
    13    9   10 ar 
    14   11   10 ar 
    15   12   11 ar 
    16   13   12 ar 
    17   19   18 1  
    18   18   28 2  
    19   18   32 am 
    20   19   20 1  
    21   29   19 1  
    22   20   21 1  
    23   21   22 ar 
    24   22   24 ar 
    25   21   23 ar 
    26   23   25 ar 
    27   24   26 ar 
    28   25   26 ar 
    29   26   27 1  
    30   27   30 ar 
    31   27   31 ar 
    32   29   16 am 
    33   32   33 1  
    34   32   37 1  
    35   33   34 1  
    36   34   35 1  
    37   35   36 1  
    38   36   37 1  
    39   12    4 ar 
    40    5    4 ar 
    41   14   38 1  
    42   15   39 1  
    43   15   40 1  
    44    4   41 1  
    45    6   42 1  
    46    7   43 1  
    47    8   44 1  
    48    9   45 1  
    49   10   46 1  
    50   11   47 1  
    51   19   48 1  
    52   20   49 1  
    53   20   50 1  
    54   22   51 1  
    55   23   52 1  
    56   24   53 1  
    57   25   54 1  
    58   29   55 1  
    59   30   56 1  
    60   30   57 1  
    61   31   58 1  
    62   31   59 1  
    63   33   60 1  
    64   33   61 1  
    65   34   62 1  
    66   34   63 1  
    67   35   64 1  
    68   35   65 1  
    69   36   66 1  
    70   36   67 1  
    71   37   68 1  
    72   37   69 1  
@<TRIPOS>SUBSTRUCTURE
     1 SUB1        1 GROUP

### 
### Created by X-TOOL on Tue Dec  2 13:04:55 2003
### 

@<TRIPOS>MOLECULE
1ppc-ligand.1ppc.025
   69    72     1     0     0
SMALL
MMFF94_CHARGES


@<TRIPOS>ATOM
      1 S          -0.6410   -2.2250   22.5200 S.o2      1 SUB1        1.447
      2 O1         -0.9670   -2.7490   23.9250 O.2       1 SUB1       -0.650
      3 O2         -1.4910   -2.9590   21.4860 O.2       1 SUB1       -0.650
      4 C1          1.6660   -3.6700   21.8910 C.ar      1 SUB1       -0.150
      5 C2          1.1140   -2.4650   22.2400 C.ar      1 SUB1       -0.009
      6 C3          1.9360   -1.3900   22.4380 C.ar      1 SUB1       -0.150
      7 C4          3.3010   -1.5360   22.3460 C.ar      1 SUB1       -0.150
      8 C5          5.2110   -2.8650   21.8980 C.ar      1 SUB1       -0.150
      9 C6          5.7610   -4.0750   21.5150 C.ar      1 SUB1       -0.150
     10 C7          4.9460   -5.1660   21.2830 C.ar      1 SUB1       -0.150
     11 C8          3.5710   -5.0610   21.4240 C.ar      1 SUB1       -0.150
     12 C9          3.0280   -3.8360   21.7610 C.ar      1 SUB1        0.000
     13 C10         3.8400   -2.7560   22.0040 C.ar      1 SUB1        0.000
     14 N          -1.1470   -0.6540   22.3510 N.am      1 SUB1       -0.914
     15 CA         -0.9240   -0.1150   21.0310 C.3       1 SUB1        0.417
     16 C          -0.8610    1.4070   20.9830 C.2       1 SUB1        0.569
     17 O           0.1570    2.0200   20.6420 O.2       1 SUB1       -0.570
     18 C          -1.6980    3.9170   22.8080 C.2       1 SUB1        0.569
     19 CA         -2.3010    3.3760   21.5120 C.3       1 SUB1        0.361
     20 CB         -1.7250    4.1260   20.3000 C.3       1 SUB1        0.144
     21 CG         -2.2890    5.5230   20.1390 C.ar      1 SUB1       -0.144
     22 CD1        -1.6010    6.6200   20.6280 C.ar      1 SUB1       -0.150
     23 CD2        -3.4490    5.7100   19.4250 C.ar      1 SUB1       -0.150
     24 CE1        -2.0890    7.8980   20.4350 C.ar      1 SUB1       -0.150
     25 CE2        -3.9340    6.9900   19.2400 C.ar      1 SUB1       -0.150
     26 CZ         -3.2540    8.1020   19.7220 C.ar      1 SUB1       -0.022
     27 CF         -3.7370    9.3910   19.4550 C.cat     1 SUB1        0.731
     28 O          -0.5090    3.7160   23.0780 O.2       1 SUB1       -0.570
     29 N          -1.9960    1.9530   21.4530 N.am      1 SUB1       -0.730
     30 NG1        -3.0490   10.2370   18.6670 N.pl3     1 SUB1       -1.192
     31 NG2        -4.9320    9.7360   19.9510 N.pl3     1 SUB1       -1.192
     32 N1         -2.4760    4.6270   23.6410 N.am      1 SUB1       -0.660
     33 C2         -3.8150    5.0720   23.2900 C.3       1 SUB1        0.300
     34 C3         -4.7590    4.5120   24.3280 C.3       1 SUB1        0.000
     35 C4         -4.4080    5.1540   25.6610 C.3       1 SUB1        0.000
     36 C5         -2.9620    4.7750   25.9680 C.3       1 SUB1        0.000
     37 C6         -1.9900    5.2030   24.8880 C.3       1 SUB1        0.300
     38 H          -1.5670   -0.1310   23.0930 H         1 SUB1        0.420
     39 HA1         0.0300   -0.5120   20.6520 H         1 SUB1        0.000
     40 HA2        -1.7440   -0.4470   20.3780 H         1 SUB1        0.000
     41 H           1.0130   -4.5170   21.7140 H         1 SUB1        0.150
     42 H           1.5110   -0.4200   22.6680 H         1 SUB1        0.150
     43 H           3.9520   -0.6910   22.5430 H         1 SUB1        0.150
     44 H           5.8480   -2.0150   22.1110 H         1 SUB1        0.150
     45 H           6.8350   -4.1670   21.3970 H         1 SUB1        0.150
     46 H           5.3840   -6.1130   20.9880 H         1 SUB1        0.150
     47 H           2.9330   -5.9240   21.2740 H         1 SUB1        0.150
     48 H          -3.3930    3.5150   21.5270 H         1 SUB1        0.000
     49 H          -1.9540    3.5500   19.3920 H         1 SUB1        0.000
     50 H          -0.6350    4.2010   20.4210 H         1 SUB1        0.000
     51 H          -0.6710    6.4750   21.1660 H         1 SUB1        0.150
     52 H          -3.9780    4.8600   19.0090 H         1 SUB1        0.150
     53 H          -1.5540    8.7460   20.8460 H         1 SUB1        0.150
     54 H          -4.8670    7.1300   18.7080 H         1 SUB1        0.150
     55 H          -2.6950    1.3250   21.7960 H         1 SUB1        0.370
     56 H          -3.3820   10.4410   17.7140 H         1 SUB1        0.669
     57 H          -2.1880   10.6810   19.0170 H         1 SUB1        0.669
     58 H          -5.2070   10.7280   19.9910 H         1 SUB1        0.669
     59 H          -5.5760    9.0090   20.2930 H         1 SUB1        0.669
     60 H          -4.0870    4.6970   22.2920 H         1 SUB1        0.000
     61 H          -3.8600    6.1710   23.2940 H         1 SUB1        0.000
     62 H          -4.6400    3.4210   24.3940 H         1 SUB1        0.000
     63 H          -5.7980    4.7520   24.0590 H         1 SUB1        0.000
     64 H          -5.0730    4.7770   26.4510 H         1 SUB1        0.000
     65 H          -4.5050    6.2470   25.5920 H         1 SUB1        0.000
     66 H          -2.9030    3.6820   26.0780 H         1 SUB1        0.000
     67 H          -2.6670    5.2550   26.9130 H         1 SUB1        0.000
     68 H          -1.9630    6.3000   24.8140 H         1 SUB1        0.000
     69 H          -0.9820    4.8250   25.1130 H         1 SUB1        0.000
@<TRIPOS>BOND
     1   15   14 1  
     2   16   15 1  
     3   16   17 2  
     4    1    2 2  
     5    1    3 2  
     6    1    5 1  
     7   14    1 1  
     8    5    6 ar 
     9    6    7 ar 
    10    7   13 ar 
    11    8    9 ar 
    12   13    8 ar 
    13    9   10 ar 
    14   11   10 ar 
    15   12   11 ar 
    16   13   12 ar 
    17   19   18 1  
    18   18   28 2  
    19   18   32 am 
    20   19   20 1  
    21   29   19 1  
    22   20   21 1  
    23   21   22 ar 
    24   22   24 ar 
    25   21   23 ar 
    26   23   25 ar 
    27   24   26 ar 
    28   25   26 ar 
    29   26   27 1  
    30   27   30 ar 
    31   27   31 ar 
    32   29   16 am 
    33   32   33 1  
    34   32   37 1  
    35   33   34 1  
    36   34   35 1  
    37   35   36 1  
    38   36   37 1  
    39   12    4 ar 
    40    5    4 ar 
    41   14   38 1  
    42   15   39 1  
    43   15   40 1  
    44    4   41 1  
    45    6   42 1  
    46    7   43 1  
    47    8   44 1  
    48    9   45 1  
    49   10   46 1  
    50   11   47 1  
    51   19   48 1  
    52   20   49 1  
    53   20   50 1  
    54   22   51 1  
    55   23   52 1  
    56   24   53 1  
    57   25   54 1  
    58   29   55 1  
    59   30   56 1  
    60   30   57 1  
    61   31   58 1  
    62   31   59 1  
    63   33   60 1  
    64   33   61 1  
    65   34   62 1  
    66   34   63 1  
    67   35   64 1  
    68   35   65 1  
    69   36   66 1  
    70   36   67 1  
    71   37   68 1  
    72   37   69 1  
@<TRIPOS>SUBSTRUCTURE
     1 SUB1        1 GROUP

### 
### Created by X-TOOL on Tue Dec  2 13:04:55 2003
### 

@<TRIPOS>MOLECULE
1ppc-ligand.1ppc.026
   69    72     1     0     0
SMALL
MMFF94_CHARGES


@<TRIPOS>ATOM
      1 S          -0.7710    1.9760   20.1310 S.o2      1 SUB1        1.447
      2 O1         -1.9020    1.4030   19.2670 O.2       1 SUB1       -0.650
      3 O2         -0.4630    3.4060   19.6970 O.2       1 SUB1       -0.650
      4 C1          1.0480    0.0070   20.9170 C.ar      1 SUB1       -0.150
      5 C2          0.6520    0.8990   19.9550 C.ar      1 SUB1       -0.009
      6 C3          1.3980    1.0230   18.8160 C.ar      1 SUB1       -0.150
      7 C4          2.5620    0.3040   18.6690 C.ar      1 SUB1       -0.150
      8 C5          4.1110   -1.3040   19.4630 C.ar      1 SUB1       -0.150
      9 C6          4.4900   -2.2260   20.4210 C.ar      1 SUB1       -0.150
     10 C7          3.7340   -2.3870   21.5680 C.ar      1 SUB1       -0.150
     11 C8          2.5870   -1.6340   21.7660 C.ar      1 SUB1       -0.150
     12 C9          2.1930   -0.7500   20.7810 C.ar      1 SUB1        0.000
     13 C10         2.9510   -0.5810   19.6490 C.ar      1 SUB1        0.000
     14 N          -1.2800    2.1780   21.6980 N.am      1 SUB1       -0.914
     15 CA         -0.2820    2.7680   22.5560 C.3       1 SUB1        0.417
     16 C          -0.8060    3.8970   23.4370 C.2       1 SUB1        0.569
     17 O          -0.0570    4.6440   24.0770 O.2       1 SUB1       -0.570
     18 C          -4.1940    5.1330   23.3120 C.2       1 SUB1        0.569
     19 CA         -2.9870    4.8390   24.2030 C.3       1 SUB1        0.361
     20 CB         -3.4470    4.2870   25.5610 C.3       1 SUB1        0.144
     21 CG         -2.6920    4.8800   26.7330 C.ar      1 SUB1       -0.144
     22 CD1        -1.6600    4.1790   27.3330 C.ar      1 SUB1       -0.150
     23 CD2        -2.9740    6.1610   27.1470 C.ar      1 SUB1       -0.150
     24 CE1        -0.9360    4.7410   28.3670 C.ar      1 SUB1       -0.150
     25 CE2        -2.2510    6.7150   28.1840 C.ar      1 SUB1       -0.150
     26 CZ         -1.2100    6.0250   28.7940 C.ar      1 SUB1       -0.022
     27 CF         -0.4500    6.6450   29.7970 C.cat     1 SUB1        0.731
     28 O          -5.3300    4.8000   23.6660 O.2       1 SUB1       -0.570
     29 N          -2.1490    3.8820   23.4940 N.am      1 SUB1       -0.730
     30 NG1        -0.4030    7.9860   29.8980 N.pl3     1 SUB1       -1.192
     31 NG2         0.1750    5.8690   30.6900 N.pl3     1 SUB1       -1.192
     32 N1         -4.0020    5.7720   22.1460 N.am      1 SUB1       -0.660
     33 C2         -2.7310    6.3680   21.7680 C.3       1 SUB1        0.300
     34 C3         -2.3120    5.7380   20.4610 C.3       1 SUB1        0.000
     35 C4         -3.3310    6.1460   19.4080 C.3       1 SUB1        0.000
     36 C5         -4.6830    5.6120   19.8700 C.3       1 SUB1        0.000
     37 C6         -5.0890    6.1170   21.2390 C.3       1 SUB1        0.300
     38 H          -2.1900    1.9150   22.0160 H         1 SUB1        0.420
     39 HA1         0.1230    1.9810   23.2090 H         1 SUB1        0.000
     40 HA2         0.5240    3.1700   21.9250 H         1 SUB1        0.000
     41 H           0.4450   -0.1070   21.8110 H         1 SUB1        0.150
     42 H           1.0730    1.6900   18.0270 H         1 SUB1        0.150
     43 H           3.1730    0.4340   17.7830 H         1 SUB1        0.150
     44 H           4.7170   -1.1520   18.5770 H         1 SUB1        0.150
     45 H           5.3820   -2.8240   20.2740 H         1 SUB1        0.150
     46 H           4.0400   -3.1080   22.3170 H         1 SUB1        0.150
     47 H           2.0110   -1.7360   22.6790 H         1 SUB1        0.150
     48 H          -2.4190    5.7660   24.3720 H         1 SUB1        0.000
     49 H          -3.2980    3.1970   25.5650 H         1 SUB1        0.000
     50 H          -4.5170    4.5100   25.6860 H         1 SUB1        0.000
     51 H          -1.4180    3.1800   26.9880 H         1 SUB1        0.150
     52 H          -3.7580    6.7310   26.6610 H         1 SUB1        0.150
     53 H          -0.1490    4.1700   28.8450 H         1 SUB1        0.150
     54 H          -2.5000    7.7110   28.5300 H         1 SUB1        0.150
     55 H          -2.6170    3.1450   23.0040 H         1 SUB1        0.370
     56 H           0.2630    8.4310   30.5450 H         1 SUB1        0.669
     57 H          -1.0330    8.5680   29.3280 H         1 SUB1        0.669
     58 H           0.9770    5.2910   30.3990 H         1 SUB1        0.669
     59 H          -0.1460    5.8480   31.6680 H         1 SUB1        0.669
     60 H          -1.9760    6.1670   22.5430 H         1 SUB1        0.000
     61 H          -2.8480    7.4550   21.6430 H         1 SUB1        0.000
     62 H          -2.2940    4.6430   20.5610 H         1 SUB1        0.000
     63 H          -1.3120    6.0970   20.1750 H         1 SUB1        0.000
     64 H          -3.0640    5.7100   18.4340 H         1 SUB1        0.000
     65 H          -3.3670    7.2420   19.3210 H         1 SUB1        0.000
     66 H          -4.6330    4.5140   19.9030 H         1 SUB1        0.000
     67 H          -5.4490    5.9220   19.1430 H         1 SUB1        0.000
     68 H          -5.2320    7.2070   21.2160 H         1 SUB1        0.000
     69 H          -6.0210    5.6310   21.5620 H         1 SUB1        0.000
@<TRIPOS>BOND
     1   15   14 1  
     2   16   15 1  
     3   16   17 2  
     4    1    2 2  
     5    1    3 2  
     6    1    5 1  
     7   14    1 1  
     8    5    6 ar 
     9    6    7 ar 
    10    7   13 ar 
    11    8    9 ar 
    12   13    8 ar 
    13    9   10 ar 
    14   11   10 ar 
    15   12   11 ar 
    16   13   12 ar 
    17   19   18 1  
    18   18   28 2  
    19   18   32 am 
    20   19   20 1  
    21   29   19 1  
    22   20   21 1  
    23   21   22 ar 
    24   22   24 ar 
    25   21   23 ar 
    26   23   25 ar 
    27   24   26 ar 
    28   25   26 ar 
    29   26   27 1  
    30   27   30 ar 
    31   27   31 ar 
    32   29   16 am 
    33   32   33 1  
    34   32   37 1  
    35   33   34 1  
    36   34   35 1  
    37   35   36 1  
    38   36   37 1  
    39   12    4 ar 
    40    5    4 ar 
    41   14   38 1  
    42   15   39 1  
    43   15   40 1  
    44    4   41 1  
    45    6   42 1  
    46    7   43 1  
    47    8   44 1  
    48    9   45 1  
    49   10   46 1  
    50   11   47 1  
    51   19   48 1  
    52   20   49 1  
    53   20   50 1  
    54   22   51 1  
    55   23   52 1  
    56   24   53 1  
    57   25   54 1  
    58   29   55 1  
    59   30   56 1  
    60   30   57 1  
    61   31   58 1  
    62   31   59 1  
    63   33   60 1  
    64   33   61 1  
    65   34   62 1  
    66   34   63 1  
    67   35   64 1  
    68   35   65 1  
    69   36   66 1  
    70   36   67 1  
    71   37   68 1  
    72   37   69 1  
@<TRIPOS>SUBSTRUCTURE
     1 SUB1        1 GROUP

### 
### Created by X-TOOL on Tue Dec  2 13:04:55 2003
### 

@<TRIPOS>MOLECULE
1ppc-ligand.1ppc.027
   69    72     1     0     0
SMALL
MMFF94_CHARGES


@<TRIPOS>ATOM
      1 S          -5.8580    3.1680   21.0600 S.o2      1 SUB1        1.447
      2 O1         -4.9650    1.9220   21.0110 O.2       1 SUB1       -0.650
      3 O2         -7.0600    2.9780   20.1390 O.2       1 SUB1       -0.650
      4 C1         -3.5280    4.6990   20.8860 C.ar      1 SUB1       -0.150
      5 C2         -4.8580    4.5770   20.5790 C.ar      1 SUB1       -0.009
      6 C3         -5.4840    5.5970   19.9170 C.ar      1 SUB1       -0.150
      7 C4         -4.7980    6.7510   19.6170 C.ar      1 SUB1       -0.150
      8 C5         -2.7990    8.0230   19.6070 C.ar      1 SUB1       -0.150
      9 C6         -1.4490    8.1290   19.8890 C.ar      1 SUB1       -0.150
     10 C7         -0.7920    7.0980   20.5340 C.ar      1 SUB1       -0.150
     11 C8         -1.4730    5.9470   20.8980 C.ar      1 SUB1       -0.150
     12 C9         -2.8090    5.8320   20.5690 C.ar      1 SUB1        0.000
     13 C10        -3.4650    6.8610   19.9400 C.ar      1 SUB1        0.000
     14 N          -6.5690    3.3180   22.5520 N.am      1 SUB1       -0.914
     15 CA         -7.4710    4.4400   22.6510 C.3       1 SUB1        0.417
     16 C          -8.8010    4.1130   23.3200 C.2       1 SUB1        0.569
     17 O          -8.8720    3.5400   24.4130 O.2       1 SUB1       -0.570
     18 C         -11.9290    5.6110   22.4740 C.2       1 SUB1        0.569
     19 CA        -11.2460    4.2970   22.8550 C.3       1 SUB1        0.361
     20 CB        -11.8940    3.1220   22.1060 C.3       1 SUB1        0.144
     21 CG        -11.4460    3.0150   20.6620 C.ar      1 SUB1       -0.144
     22 CD1       -10.3110    2.2990   20.3280 C.ar      1 SUB1       -0.150
     23 CD2       -12.2240    3.5600   19.6670 C.ar      1 SUB1       -0.150
     24 CE1        -9.9320    2.1580   19.0070 C.ar      1 SUB1       -0.150
     25 CE2       -11.8380    3.4190   18.3490 C.ar      1 SUB1       -0.150
     26 CZ        -10.7020    2.7010   17.9970 C.ar      1 SUB1       -0.022
     27 CF        -10.3770    2.5180   16.6450 C.cat     1 SUB1        0.731
     28 O         -12.2300    5.8430   21.2980 O.2       1 SUB1       -0.570
     29 N          -9.8350    4.4310   22.5210 N.am      1 SUB1       -0.730
     30 NG1       -10.1530    1.2860   16.1500 N.pl3     1 SUB1       -1.192
     31 NG2       -10.3600    3.5910   15.8460 N.pl3     1 SUB1       -1.192
     32 N1        -12.2090    6.5030   23.4380 N.am      1 SUB1       -0.660
     33 C2        -12.0700    6.2080   24.8550 C.3       1 SUB1        0.300
     34 C3        -11.1200    7.2290   25.4340 C.3       1 SUB1        0.000
     35 C4        -11.7880    8.5910   25.3220 C.3       1 SUB1        0.000
     36 C5        -12.0320    8.8440   23.8370 C.3       1 SUB1        0.000
     37 C6        -12.8770    7.7710   23.1800 C.3       1 SUB1        0.300
     38 H          -6.3900    2.6900   23.3090 H         1 SUB1        0.420
     39 HA1        -6.9760    5.2310   23.2340 H         1 SUB1        0.000
     40 HA2        -7.6770    4.8080   21.6350 H         1 SUB1        0.000
     41 H          -3.0270    3.8820   21.3930 H         1 SUB1        0.150
     42 H          -6.5230    5.4950   19.6270 H         1 SUB1        0.150
     43 H          -5.3070    7.5730   19.1270 H         1 SUB1        0.150
     44 H          -3.3260    8.8410   19.1290 H         1 SUB1        0.150
     45 H          -0.9060    9.0230   19.6050 H         1 SUB1        0.150
     46 H           0.2650    7.1910   20.7570 H         1 SUB1        0.150
     47 H          -0.9660    5.1520   21.4320 H         1 SUB1        0.150
     48 H         -11.3510    4.1280   23.9370 H         1 SUB1        0.000
     49 H         -12.9850    3.2530   22.1250 H         1 SUB1        0.000
     50 H         -11.6280    2.1880   22.6230 H         1 SUB1        0.000
     51 H          -9.7120    1.8450   21.1100 H         1 SUB1        0.150
     52 H         -13.1340    4.0940   19.9160 H         1 SUB1        0.150
     53 H          -9.0250    1.6170   18.7620 H         1 SUB1        0.150
     54 H         -12.4350    3.8800   17.5710 H         1 SUB1        0.150
     55 H          -9.6150    4.7910   21.6150 H         1 SUB1        0.370
     56 H          -9.2050    0.8840   16.1810 H         1 SUB1        0.669
     57 H         -10.9280    0.7470   15.7400 H         1 SUB1        0.669
     58 H          -9.9600    3.5220   14.8990 H         1 SUB1        0.669
     59 H         -10.7470    4.4860   16.1770 H         1 SUB1        0.669
     60 H         -11.6630    5.1950   24.9910 H         1 SUB1        0.000
     61 H         -13.0490    6.2790   25.3530 H         1 SUB1        0.000
     62 H         -10.1760    7.2260   24.8690 H         1 SUB1        0.000
     63 H         -10.9160    6.9970   26.4900 H         1 SUB1        0.000
     64 H         -11.1300    9.3710   25.7340 H         1 SUB1        0.000
     65 H         -12.7420    8.5910   25.8670 H         1 SUB1        0.000
     66 H         -11.0600    8.8850   23.3250 H         1 SUB1        0.000
     67 H         -12.5470    9.8100   23.7260 H         1 SUB1        0.000
     68 H         -13.8870    7.7640   23.6150 H         1 SUB1        0.000
     69 H         -12.9450    7.9510   22.0980 H         1 SUB1        0.000
@<TRIPOS>BOND
     1   15   14 1  
     2   16   15 1  
     3   16   17 2  
     4    1    2 2  
     5    1    3 2  
     6    1    5 1  
     7   14    1 1  
     8    5    6 ar 
     9    6    7 ar 
    10    7   13 ar 
    11    8    9 ar 
    12   13    8 ar 
    13    9   10 ar 
    14   11   10 ar 
    15   12   11 ar 
    16   13   12 ar 
    17   19   18 1  
    18   18   28 2  
    19   18   32 am 
    20   19   20 1  
    21   29   19 1  
    22   20   21 1  
    23   21   22 ar 
    24   22   24 ar 
    25   21   23 ar 
    26   23   25 ar 
    27   24   26 ar 
    28   25   26 ar 
    29   26   27 1  
    30   27   30 ar 
    31   27   31 ar 
    32   29   16 am 
    33   32   33 1  
    34   32   37 1  
    35   33   34 1  
    36   34   35 1  
    37   35   36 1  
    38   36   37 1  
    39   12    4 ar 
    40    5    4 ar 
    41   14   38 1  
    42   15   39 1  
    43   15   40 1  
    44    4   41 1  
    45    6   42 1  
    46    7   43 1  
    47    8   44 1  
    48    9   45 1  
    49   10   46 1  
    50   11   47 1  
    51   19   48 1  
    52   20   49 1  
    53   20   50 1  
    54   22   51 1  
    55   23   52 1  
    56   24   53 1  
    57   25   54 1  
    58   29   55 1  
    59   30   56 1  
    60   30   57 1  
    61   31   58 1  
    62   31   59 1  
    63   33   60 1  
    64   33   61 1  
    65   34   62 1  
    66   34   63 1  
    67   35   64 1  
    68   35   65 1  
    69   36   66 1  
    70   36   67 1  
    71   37   68 1  
    72   37   69 1  
@<TRIPOS>SUBSTRUCTURE
     1 SUB1        1 GROUP

### 
### Created by X-TOOL on Tue Dec  2 13:04:55 2003
### 

@<TRIPOS>MOLECULE
1ppc-ligand.1ppc.028
   69    72     1     0     0
SMALL
MMFF94_CHARGES


@<TRIPOS>ATOM
      1 S           0.2130   -2.4500   17.3650 S.o2      1 SUB1        1.447
      2 O1         -0.5660   -3.6760   17.8600 O.2       1 SUB1       -0.650
      3 O2          0.2740   -2.4590   15.8400 O.2       1 SUB1       -0.650
      4 C1          2.3880   -3.6360   18.6580 C.ar      1 SUB1       -0.150
      5 C2          1.8470   -2.5050   18.1040 C.ar      1 SUB1       -0.009
      6 C3          2.5550   -1.3360   18.1530 C.ar      1 SUB1       -0.150
      7 C4          3.7670   -1.2880   18.8030 C.ar      1 SUB1       -0.150
      8 C5          5.5190   -2.3550   19.9880 C.ar      1 SUB1       -0.150
      9 C6          6.0760   -3.5050   20.5180 C.ar      1 SUB1       -0.150
     10 C7          5.3880   -4.7020   20.4540 C.ar      1 SUB1       -0.150
     11 C8          4.1400   -4.7660   19.8540 C.ar      1 SUB1       -0.150
     12 C9          3.6140   -3.6220   19.2870 C.ar      1 SUB1        0.000
     13 C10         4.2920   -2.4310   19.3620 C.ar      1 SUB1        0.000
     14 N          -0.6290   -1.0560   17.6830 N.am      1 SUB1       -0.914
     15 CA          0.0200    0.1350   17.1910 C.3       1 SUB1        0.417
     16 C           0.3220    1.1700   18.2690 C.2       1 SUB1        0.569
     17 O           1.3890    1.7930   18.3120 O.2       1 SUB1       -0.570
     18 C          -1.8380    3.1300   20.0400 C.2       1 SUB1        0.569
     19 CA         -0.7280    2.1180   20.3260 C.3       1 SUB1        0.361
     20 CB         -1.0190    1.3580   21.6290 C.3       1 SUB1        0.144
     21 CG          0.1810    0.6010   22.1600 C.ar      1 SUB1       -0.144
     22 CD1         0.9590    1.1360   23.1710 C.ar      1 SUB1       -0.150
     23 CD2         0.4470   -0.6660   21.6950 C.ar      1 SUB1       -0.150
     24 CE1         2.0220    0.4230   23.6920 C.ar      1 SUB1       -0.150
     25 CE2         1.5140   -1.3710   22.2150 C.ar      1 SUB1       -0.150
     26 CZ          2.3030   -0.8490   23.2330 C.ar      1 SUB1       -0.022
     27 CF          3.3340   -1.6200   23.7880 C.cat     1 SUB1        0.731
     28 O          -2.9470    2.7500   19.6500 O.2       1 SUB1       -0.570
     29 N          -0.6620    1.2150   19.1840 N.am      1 SUB1       -0.730
     30 NG1         3.5430   -1.6390   25.1180 N.pl3     1 SUB1       -1.192
     31 NG2         4.0640   -2.3870   22.9690 N.pl3     1 SUB1       -1.192
     32 N1         -1.5930    4.4360   20.2340 N.am      1 SUB1       -0.660
     33 C2         -0.3880    4.9300   20.8820 C.3       1 SUB1        0.300
     34 C3          0.2900    5.8670   19.9110 C.3       1 SUB1        0.000
     35 C4         -0.6320    7.0600   19.7070 C.3       1 SUB1        0.000
     36 C5         -1.9370    6.5180   19.1310 C.3       1 SUB1        0.000
     37 C6         -2.5900    5.4740   20.0130 C.3       1 SUB1        0.300
     38 H          -1.5030   -1.0430   18.1690 H         1 SUB1        0.420
     39 HA1         0.9690   -0.1590   16.7190 H         1 SUB1        0.000
     40 HA2        -0.6340    0.6000   16.4400 H         1 SUB1        0.000
     41 H           1.8350   -4.5670   18.6000 H         1 SUB1        0.150
     42 H           2.1610   -0.4450   17.6780 H         1 SUB1        0.150
     43 H           4.3070   -0.3510   18.8750 H         1 SUB1        0.150
     44 H           6.0400   -1.4080   20.0630 H         1 SUB1        0.150
     45 H           7.0540   -3.4670   20.9850 H         1 SUB1        0.150
     46 H           5.8280   -5.5980   20.8760 H         1 SUB1        0.150
     47 H           3.5860   -5.6980   19.8320 H         1 SUB1        0.150
     48 H           0.2330    2.6440   20.4310 H         1 SUB1        0.000
     49 H          -1.8300    0.6390   21.4410 H         1 SUB1        0.000
     50 H          -1.3410    2.0810   22.3920 H         1 SUB1        0.000
     51 H           0.7330    2.1230   23.5590 H         1 SUB1        0.150
     52 H          -0.1770   -1.1080   20.9260 H         1 SUB1        0.150
     53 H           2.6400    0.8650   24.4650 H         1 SUB1        0.150
     54 H           1.7410   -2.3540   21.8210 H         1 SUB1        0.150
     55 H          -1.4170    0.5700   19.0720 H         1 SUB1        0.370
     56 H           2.8600   -2.0940   25.7400 H         1 SUB1        0.669
     57 H           4.3860   -1.1990   25.5120 H         1 SUB1        0.669
     58 H           3.6610   -3.2500   22.5760 H         1 SUB1        0.669
     59 H           5.0280   -2.1150   22.7320 H         1 SUB1        0.669
     60 H           0.2800    4.0900   21.1240 H         1 SUB1        0.000
     61 H          -0.6510    5.4680   21.8050 H         1 SUB1        0.000
     62 H           0.4600    5.3560   18.9520 H         1 SUB1        0.000
     63 H           1.2520    6.2030   20.3240 H         1 SUB1        0.000
     64 H          -0.1770    7.7740   19.0050 H         1 SUB1        0.000
     65 H          -0.8220    7.5610   20.6670 H         1 SUB1        0.000
     66 H          -1.7250    6.0650   18.1510 H         1 SUB1        0.000
     67 H          -2.6380    7.3560   19.0040 H         1 SUB1        0.000
     68 H          -2.8930    5.9210   20.9710 H         1 SUB1        0.000
     69 H          -3.4730    5.0520   19.5100 H         1 SUB1        0.000
@<TRIPOS>BOND
     1   15   14 1  
     2   16   15 1  
     3   16   17 2  
     4    1    2 2  
     5    1    3 2  
     6    1    5 1  
     7   14    1 1  
     8    5    6 ar 
     9    6    7 ar 
    10    7   13 ar 
    11    8    9 ar 
    12   13    8 ar 
    13    9   10 ar 
    14   11   10 ar 
    15   12   11 ar 
    16   13   12 ar 
    17   19   18 1  
    18   18   28 2  
    19   18   32 am 
    20   19   20 1  
    21   29   19 1  
    22   20   21 1  
    23   21   22 ar 
    24   22   24 ar 
    25   21   23 ar 
    26   23   25 ar 
    27   24   26 ar 
    28   25   26 ar 
    29   26   27 1  
    30   27   30 ar 
    31   27   31 ar 
    32   29   16 am 
    33   32   33 1  
    34   32   37 1  
    35   33   34 1  
    36   34   35 1  
    37   35   36 1  
    38   36   37 1  
    39   12    4 ar 
    40    5    4 ar 
    41   14   38 1  
    42   15   39 1  
    43   15   40 1  
    44    4   41 1  
    45    6   42 1  
    46    7   43 1  
    47    8   44 1  
    48    9   45 1  
    49   10   46 1  
    50   11   47 1  
    51   19   48 1  
    52   20   49 1  
    53   20   50 1  
    54   22   51 1  
    55   23   52 1  
    56   24   53 1  
    57   25   54 1  
    58   29   55 1  
    59   30   56 1  
    60   30   57 1  
    61   31   58 1  
    62   31   59 1  
    63   33   60 1  
    64   33   61 1  
    65   34   62 1  
    66   34   63 1  
    67   35   64 1  
    68   35   65 1  
    69   36   66 1  
    70   36   67 1  
    71   37   68 1  
    72   37   69 1  
@<TRIPOS>SUBSTRUCTURE
     1 SUB1        1 GROUP

### 
### Created by X-TOOL on Tue Dec  2 13:04:55 2003
### 

@<TRIPOS>MOLECULE
1ppc-ligand.1ppc.029
   69    72     1     0     0
SMALL
MMFF94_CHARGES


@<TRIPOS>ATOM
      1 S          -0.4360   -2.2060   14.4990 S.o2      1 SUB1        1.447
      2 O1         -0.8770   -3.4260   13.6810 O.2       1 SUB1       -0.650
      3 O2          0.2710   -1.2040   13.5910 O.2       1 SUB1       -0.650
      4 C1          1.4980   -1.9740   16.5030 C.ar      1 SUB1       -0.150
      5 C2          0.6330   -2.7870   15.8180 C.ar      1 SUB1       -0.009
      6 C3          0.6060   -4.1230   16.1060 C.ar      1 SUB1       -0.150
      7 C4          1.4790   -4.6490   17.0300 C.ar      1 SUB1       -0.150
      8 C5          3.1960   -4.3750   18.6400 C.ar      1 SUB1       -0.150
      9 C6          4.0450   -3.5470   19.3520 C.ar      1 SUB1       -0.150
     10 C7          4.0670   -2.1890   19.0940 C.ar      1 SUB1       -0.150
     11 C8          3.2380   -1.6420   18.1280 C.ar      1 SUB1       -0.150
     12 C9          2.3610   -2.4710   17.4570 C.ar      1 SUB1        0.000
     13 C10         2.3480   -3.8210   17.7030 C.ar      1 SUB1        0.000
     14 N          -1.7550   -1.3470   15.0240 N.am      1 SUB1       -0.914
     15 CA         -1.4120   -0.1500   15.7530 C.3       1 SUB1        0.417
     16 C          -1.6850   -0.2330   17.2500 C.2       1 SUB1        0.569
     17 O          -2.6690   -0.8210   17.7150 O.2       1 SUB1       -0.570
     18 C          -2.0260    1.2590   19.8630 C.2       1 SUB1        0.569
     19 CA         -0.7250    0.6040   19.3970 C.3       1 SUB1        0.361
     20 CB         -0.5520   -0.7720   20.0600 C.3       1 SUB1        0.144
     21 CG          0.3390   -0.7360   21.2850 C.ar      1 SUB1       -0.144
     22 CD1        -0.0850   -0.1150   22.4460 C.ar      1 SUB1       -0.150
     23 CD2         1.5420   -1.4020   21.2700 C.ar      1 SUB1       -0.150
     24 CE1         0.7060   -0.1280   23.5790 C.ar      1 SUB1       -0.150
     25 CE2         2.3300   -1.4070   22.4030 C.ar      1 SUB1       -0.150
     26 CZ          1.9170   -0.7910   23.5790 C.ar      1 SUB1       -0.022
     27 CF          2.7100   -0.8760   24.7320 C.cat     1 SUB1        0.731
     28 O          -3.0560    0.5890   19.9870 O.2       1 SUB1       -0.570
     29 N          -0.7930    0.4930   17.9470 N.am      1 SUB1       -0.730
     30 NG1         4.0530   -0.8550   24.6500 N.pl3     1 SUB1       -1.192
     31 NG2         2.0970   -0.9130   25.9220 N.pl3     1 SUB1       -1.192
     32 N1         -2.0270    2.5710   20.1500 N.am      1 SUB1       -0.660
     33 C2         -0.8130    3.3680   20.2230 C.3       1 SUB1        0.300
     34 C3         -0.9600    4.5010   19.2350 C.3       1 SUB1        0.000
     35 C4         -2.1040    5.3810   19.7140 C.3       1 SUB1        0.000
     36 C5         -3.3540    4.5050   19.7410 C.3       1 SUB1        0.000
     37 C6         -3.2070    3.2820   20.6220 C.3       1 SUB1        0.300
     38 H          -2.6980   -1.6310   14.8510 H         1 SUB1        0.420
     39 HA1        -0.3390    0.0470   15.6090 H         1 SUB1        0.000
     40 HA2        -1.9960    0.6860   15.3420 H         1 SUB1        0.000
     41 H           1.5040   -0.9120   16.2890 H         1 SUB1        0.150
     42 H          -0.1050   -4.7700   15.6060 H         1 SUB1        0.150
     43 H           1.4830   -5.7160   17.2280 H         1 SUB1        0.150
     44 H           3.1970   -5.4450   18.8160 H         1 SUB1        0.150
     45 H           4.6940   -3.9640   20.1130 H         1 SUB1        0.150
     46 H           4.7390   -1.5470   19.6530 H         1 SUB1        0.150
     47 H           3.2770   -0.5820   17.9030 H         1 SUB1        0.150
     48 H           0.1290    1.2400   19.6750 H         1 SUB1        0.000
     49 H          -0.1100   -1.4610   19.3260 H         1 SUB1        0.000
     50 H          -1.5430   -1.1430   20.3600 H         1 SUB1        0.000
     51 H          -1.0460    0.3860   22.4670 H         1 SUB1        0.150
     52 H           1.8690   -1.9200   20.3750 H         1 SUB1        0.150
     53 H           0.3730    0.3850   24.4740 H         1 SUB1        0.150
     54 H           3.2930   -1.9030   22.3770 H         1 SUB1        0.150
     55 H          -0.1130    1.0040   17.4200 H         1 SUB1        0.370
     56 H           4.5110   -0.7760   23.7310 H         1 SUB1        0.669
     57 H           4.6220   -0.9190   25.5050 H         1 SUB1        0.669
     58 H           2.5430   -0.4820   26.7450 H         1 SUB1        0.669
     59 H           1.1800   -1.3720   26.0150 H         1 SUB1        0.669
     60 H           0.0600    2.7510   19.9620 H         1 SUB1        0.000
     61 H          -0.6860    3.7690   21.2400 H         1 SUB1        0.000
     62 H          -1.1870    4.1000   18.2360 H         1 SUB1        0.000
     63 H          -0.0300    5.0860   19.1930 H         1 SUB1        0.000
     64 H          -2.2490    6.2240   19.0220 H         1 SUB1        0.000
     65 H          -1.8900    5.7650   20.7210 H         1 SUB1        0.000
     66 H          -3.5710    4.1740   18.7160 H         1 SUB1        0.000
     67 H          -4.1950    5.1070   20.1180 H         1 SUB1        0.000
     68 H          -3.0750    3.5830   21.6720 H         1 SUB1        0.000
     69 H          -4.0970    2.6410   20.5340 H         1 SUB1        0.000
@<TRIPOS>BOND
     1   15   14 1  
     2   16   15 1  
     3   16   17 2  
     4    1    2 2  
     5    1    3 2  
     6    1    5 1  
     7   14    1 1  
     8    5    6 ar 
     9    6    7 ar 
    10    7   13 ar 
    11    8    9 ar 
    12   13    8 ar 
    13    9   10 ar 
    14   11   10 ar 
    15   12   11 ar 
    16   13   12 ar 
    17   19   18 1  
    18   18   28 2  
    19   18   32 am 
    20   19   20 1  
    21   29   19 1  
    22   20   21 1  
    23   21   22 ar 
    24   22   24 ar 
    25   21   23 ar 
    26   23   25 ar 
    27   24   26 ar 
    28   25   26 ar 
    29   26   27 1  
    30   27   30 ar 
    31   27   31 ar 
    32   29   16 am 
    33   32   33 1  
    34   32   37 1  
    35   33   34 1  
    36   34   35 1  
    37   35   36 1  
    38   36   37 1  
    39   12    4 ar 
    40    5    4 ar 
    41   14   38 1  
    42   15   39 1  
    43   15   40 1  
    44    4   41 1  
    45    6   42 1  
    46    7   43 1  
    47    8   44 1  
    48    9   45 1  
    49   10   46 1  
    50   11   47 1  
    51   19   48 1  
    52   20   49 1  
    53   20   50 1  
    54   22   51 1  
    55   23   52 1  
    56   24   53 1  
    57   25   54 1  
    58   29   55 1  
    59   30   56 1  
    60   30   57 1  
    61   31   58 1  
    62   31   59 1  
    63   33   60 1  
    64   33   61 1  
    65   34   62 1  
    66   34   63 1  
    67   35   64 1  
    68   35   65 1  
    69   36   66 1  
    70   36   67 1  
    71   37   68 1  
    72   37   69 1  
@<TRIPOS>SUBSTRUCTURE
     1 SUB1        1 GROUP

### 
### Created by X-TOOL on Tue Dec  2 13:04:55 2003
### 

@<TRIPOS>MOLECULE
1ppc-ligand.1ppc.030
   69    72     1     0     0
SMALL
MMFF94_CHARGES


@<TRIPOS>ATOM
      1 S          -5.4370    6.6790   27.7580 S.o2      1 SUB1        1.447
      2 O1         -6.1890    8.0160   27.7430 O.2       1 SUB1       -0.650
      3 O2         -6.3580    5.5740   28.2690 O.2       1 SUB1       -0.650
      4 C1         -4.0480    7.1020   30.1440 C.ar      1 SUB1       -0.150
      5 C2         -3.9860    6.8780   28.7930 C.ar      1 SUB1       -0.009
      6 C3         -2.7650    6.8530   28.1790 C.ar      1 SUB1       -0.150
      7 C4         -1.6220    7.1080   28.9000 C.ar      1 SUB1       -0.150
      8 C5         -0.5350    7.5710   30.9540 C.ar      1 SUB1       -0.150
      9 C6         -0.5990    7.7650   32.3220 C.ar      1 SUB1       -0.150
     10 C7         -1.8210    7.7670   32.9670 C.ar      1 SUB1       -0.150
     11 C8         -2.9940    7.5690   32.2540 C.ar      1 SUB1       -0.150
     12 C9         -2.9150    7.3290   30.8960 C.ar      1 SUB1        0.000
     13 C10        -1.7010    7.3400   30.2540 C.ar      1 SUB1        0.000
     14 N          -5.1030    6.1800   26.2100 N.am      1 SUB1       -0.914
     15 CA         -4.4450    4.8970   26.1470 C.3       1 SUB1        0.417
     16 C          -3.7050    4.6410   24.8400 C.2       1 SUB1        0.569
     17 O          -2.5300    4.9830   24.6630 O.2       1 SUB1       -0.570
     18 C          -4.2170    2.1710   22.5280 C.2       1 SUB1        0.569
     19 CA         -4.1450    3.6980   22.5710 C.3       1 SUB1        0.361
     20 CB         -5.0770    4.3070   21.5110 C.3       1 SUB1        0.144
     21 CG         -4.5440    5.5950   20.9180 C.ar      1 SUB1       -0.144
     22 CD1        -3.8720    5.5880   19.7090 C.ar      1 SUB1       -0.150
     23 CD2        -4.8100    6.7920   21.5420 C.ar      1 SUB1       -0.150
     24 CE1        -3.4320    6.7700   19.1430 C.ar      1 SUB1       -0.150
     25 CE2        -4.3630    7.9680   20.9740 C.ar      1 SUB1       -0.150
     26 CZ         -3.6890    7.9780   19.7590 C.ar      1 SUB1       -0.022
     27 CF         -3.3120    9.1960   19.1750 C.cat     1 SUB1        0.731
     28 O          -5.2970    1.5900   22.6750 O.2       1 SUB1       -0.570
     29 N          -4.5240    4.1110   23.9150 N.am      1 SUB1       -0.730
     30 NG1        -2.0610    9.3840   18.7160 N.pl3     1 SUB1       -1.192
     31 NG2        -4.2450   10.1440   19.0260 N.pl3     1 SUB1       -1.192
     32 N1         -3.0900    1.4730   22.3140 N.am      1 SUB1       -0.660
     33 C2         -1.8320    2.0940   21.9320 C.3       1 SUB1        0.300
     34 C3         -0.8070    1.7070   22.9720 C.3       1 SUB1        0.000
     35 C4         -0.6100    0.2020   22.8820 C.3       1 SUB1        0.000
     36 C5         -1.9630   -0.4400   23.1750 C.3       1 SUB1        0.000
     37 C6         -3.0570    0.0190   22.2340 C.3       1 SUB1        0.300
     38 H          -5.3350    6.7170   25.4000 H         1 SUB1        0.420
     39 HA1        -3.7200    4.8400   26.9720 H         1 SUB1        0.000
     40 HA2        -5.2060    4.1120   26.2720 H         1 SUB1        0.000
     41 H          -5.0140    7.1010   30.6350 H         1 SUB1        0.150
     42 H          -2.6980    6.6310   27.1200 H         1 SUB1        0.150
     43 H          -0.6590    7.1270   28.4020 H         1 SUB1        0.150
     44 H           0.4180    7.6000   30.4390 H         1 SUB1        0.150
     45 H           0.3130    7.9170   32.8890 H         1 SUB1        0.150
     46 H          -1.8640    7.9250   34.0380 H         1 SUB1        0.150
     47 H          -3.9550    7.6010   32.7540 H         1 SUB1        0.150
     48 H          -3.1150    4.0250   22.3660 H         1 SUB1        0.000
     49 H          -6.0500    4.5130   21.9780 H         1 SUB1        0.000
     50 H          -5.2080    3.5760   20.6990 H         1 SUB1        0.000
     51 H          -3.6870    4.6480   19.2020 H         1 SUB1        0.150
     52 H          -5.3650    6.8110   22.4730 H         1 SUB1        0.150
     53 H          -2.8830    6.7470   18.2090 H         1 SUB1        0.150
     54 H          -4.5440    8.9050   21.4870 H         1 SUB1        0.150
     55 H          -5.4830    3.9890   24.1740 H         1 SUB1        0.370
     56 H          -1.3910    8.6020   18.7120 H         1 SUB1        0.669
     57 H          -1.7730   10.3100   18.3690 H         1 SUB1        0.669
     58 H          -4.2610   10.9560   19.6590 H         1 SUB1        0.669
     59 H          -4.9490   10.0610   18.2780 H         1 SUB1        0.669
     60 H          -1.9460    3.1880   21.9030 H         1 SUB1        0.000
     61 H          -1.5190    1.7330   20.9410 H         1 SUB1        0.000
     62 H          -1.1680    1.9800   23.9740 H         1 SUB1        0.000
     63 H           0.1440    2.2230   22.7720 H         1 SUB1        0.000
     64 H           0.1330   -0.1270   23.6240 H         1 SUB1        0.000
     65 H          -0.2690   -0.0760   21.8740 H         1 SUB1        0.000
     66 H          -2.2560   -0.1850   24.2030 H         1 SUB1        0.000
     67 H          -1.8590   -1.5320   23.0830 H         1 SUB1        0.000
     68 H          -2.8330   -0.3000   21.2050 H         1 SUB1        0.000
     69 H          -4.0250   -0.4000   22.5440 H         1 SUB1        0.000
@<TRIPOS>BOND
     1   15   14 1  
     2   16   15 1  
     3   16   17 2  
     4    1    2 2  
     5    1    3 2  
     6    1    5 1  
     7   14    1 1  
     8    5    6 ar 
     9    6    7 ar 
    10    7   13 ar 
    11    8    9 ar 
    12   13    8 ar 
    13    9   10 ar 
    14   11   10 ar 
    15   12   11 ar 
    16   13   12 ar 
    17   19   18 1  
    18   18   28 2  
    19   18   32 am 
    20   19   20 1  
    21   29   19 1  
    22   20   21 1  
    23   21   22 ar 
    24   22   24 ar 
    25   21   23 ar 
    26   23   25 ar 
    27   24   26 ar 
    28   25   26 ar 
    29   26   27 1  
    30   27   30 ar 
    31   27   31 ar 
    32   29   16 am 
    33   32   33 1  
    34   32   37 1  
    35   33   34 1  
    36   34   35 1  
    37   35   36 1  
    38   36   37 1  
    39   12    4 ar 
    40    5    4 ar 
    41   14   38 1  
    42   15   39 1  
    43   15   40 1  
    44    4   41 1  
    45    6   42 1  
    46    7   43 1  
    47    8   44 1  
    48    9   45 1  
    49   10   46 1  
    50   11   47 1  
    51   19   48 1  
    52   20   49 1  
    53   20   50 1  
    54   22   51 1  
    55   23   52 1  
    56   24   53 1  
    57   25   54 1  
    58   29   55 1  
    59   30   56 1  
    60   30   57 1  
    61   31   58 1  
    62   31   59 1  
    63   33   60 1  
    64   33   61 1  
    65   34   62 1  
    66   34   63 1  
    67   35   64 1  
    68   35   65 1  
    69   36   66 1  
    70   36   67 1  
    71   37   68 1  
    72   37   69 1  
@<TRIPOS>SUBSTRUCTURE
     1 SUB1        1 GROUP

### 
### Created by X-TOOL on Tue Dec  2 13:04:55 2003
### 

@<TRIPOS>MOLECULE
1ppc-ligand.1ppc.031
   69    72     1     0     0
SMALL
MMFF94_CHARGES


@<TRIPOS>ATOM
      1 S          -6.7590    5.0240   25.8950 S.o2      1 SUB1        1.447
      2 O1         -6.8900    4.5660   27.3530 O.2       1 SUB1       -0.650
      3 O2         -6.7760    6.5490   25.8300 O.2       1 SUB1       -0.650
      4 C1         -8.1970    4.3340   23.6010 C.ar      1 SUB1       -0.150
      5 C2         -8.1120    4.2960   24.9690 C.ar      1 SUB1       -0.009
      6 C3         -9.1270    3.7230   25.6820 C.ar      1 SUB1       -0.150
      7 C4        -10.2430    3.2440   25.0360 C.ar      1 SUB1       -0.150
      8 C5        -11.4400    2.7910   23.0420 C.ar      1 SUB1       -0.150
      9 C6        -11.5080    2.8020   21.6610 C.ar      1 SUB1       -0.150
     10 C7        -10.4800    3.3520   20.9200 C.ar      1 SUB1       -0.150
     11 C8         -9.3690    3.8920   21.5490 C.ar      1 SUB1       -0.150
     12 C9         -9.2900    3.8330   22.9270 C.ar      1 SUB1        0.000
     13 C10       -10.3180    3.2980   23.6630 C.ar      1 SUB1        0.000
     14 N          -5.2540    4.6560   25.3010 N.am      1 SUB1       -0.914
     15 CA         -5.0410    5.1120   23.9490 C.3       1 SUB1        0.417
     16 C          -3.5750    5.3180   23.5850 C.2       1 SUB1        0.569
     17 O          -2.9080    6.2630   24.0230 O.2       1 SUB1       -0.570
     18 C          -1.3460    2.8740   22.4350 C.2       1 SUB1        0.569
     19 CA         -1.8270    4.2930   22.1280 C.3       1 SUB1        0.361
     20 CB         -1.8020    4.5490   20.6130 C.3       1 SUB1        0.144
     21 CG         -2.4490    5.8620   20.2200 C.ar      1 SUB1       -0.144
     22 CD1        -3.8030    5.9230   19.9410 C.ar      1 SUB1       -0.150
     23 CD2        -1.7030    7.0170   20.2270 C.ar      1 SUB1       -0.150
     24 CE1        -4.4030    7.1300   19.6340 C.ar      1 SUB1       -0.150
     25 CE2        -2.3070    8.2180   19.9140 C.ar      1 SUB1       -0.150
     26 CZ         -3.6660    8.2970   19.6350 C.ar      1 SUB1       -0.022
     27 CF         -4.2620    9.5430   19.3910 C.cat     1 SUB1        0.731
     28 O          -2.0240    1.8970   22.1030 O.2       1 SUB1       -0.570
     29 N          -3.1730    4.4200   22.6690 N.am      1 SUB1       -0.730
     30 NG1        -3.5450   10.6790   19.4790 N.pl3     1 SUB1       -1.192
     31 NG2        -5.5420    9.5690   19.0040 N.pl3     1 SUB1       -1.192
     32 N1         -0.1680    2.7070   23.0590 N.am      1 SUB1       -0.660
     33 C2          0.7680    3.7950   23.2910 C.3       1 SUB1        0.300
     34 C3          1.0110    3.8660   24.7810 C.3       1 SUB1        0.000
     35 C4          1.7070    2.5790   25.1930 C.3       1 SUB1        0.000
     36 C5          0.7630    1.4320   24.8420 C.3       1 SUB1        0.000
     37 C6          0.3860    1.3980   23.3750 C.3       1 SUB1        0.300
     38 H          -4.5620    4.1660   25.8300 H         1 SUB1        0.420
     39 HA1        -5.4660    4.3660   23.2610 H         1 SUB1        0.000
     40 HA2        -5.5660    6.0700   23.8200 H         1 SUB1        0.000
     41 H          -7.3830    4.7700   23.0340 H         1 SUB1        0.150
     42 H          -9.0520    3.6440   26.7610 H         1 SUB1        0.150
     43 H         -11.0640    2.8260   25.6080 H         1 SUB1        0.150
     44 H         -12.2580    2.3880   23.6290 H         1 SUB1        0.150
     45 H         -12.3710    2.3770   21.1580 H         1 SUB1        0.150
     46 H         -10.5420    3.3620   19.8380 H         1 SUB1        0.150
     47 H          -8.5770    4.3530   20.9700 H         1 SUB1        0.150
     48 H          -1.1650    5.0210   22.6210 H         1 SUB1        0.000
     49 H          -2.3380    3.7310   20.1110 H         1 SUB1        0.000
     50 H          -0.7550    4.5610   20.2770 H         1 SUB1        0.000
     51 H          -4.3980    5.0170   19.9640 H         1 SUB1        0.150
     52 H          -0.6480    6.9850   20.4760 H         1 SUB1        0.150
     53 H          -5.4590    7.1590   19.3910 H         1 SUB1        0.150
     54 H          -1.7080    9.1200   19.8860 H         1 SUB1        0.150
     55 H          -3.8610    3.7790   22.3280 H         1 SUB1        0.370
     56 H          -2.5230   10.6550   19.3610 H         1 SUB1        0.669
     57 H          -4.0200   11.5740   19.6670 H         1 SUB1        0.669
     58 H          -5.7790    9.7180   18.0120 H         1 SUB1        0.669
     59 H          -6.2920    9.4410   19.6980 H         1 SUB1        0.669
     60 H           0.3390    4.7430   22.9330 H         1 SUB1        0.000
     61 H           1.7130    3.5980   22.7640 H         1 SUB1        0.000
     62 H           0.0530    3.9620   25.3130 H         1 SUB1        0.000
     63 H           1.6490    4.7300   25.0160 H         1 SUB1        0.000
     64 H           1.9060    2.5860   26.2750 H         1 SUB1        0.000
     65 H           2.6550    2.4690   24.6470 H         1 SUB1        0.000
     66 H          -0.1550    1.5410   25.4360 H         1 SUB1        0.000
     67 H           1.2560    0.4820   25.0980 H         1 SUB1        0.000
     68 H           1.2760    1.2030   22.7580 H         1 SUB1        0.000
     69 H          -0.3640    0.6140   23.1940 H         1 SUB1        0.000
@<TRIPOS>BOND
     1   15   14 1  
     2   16   15 1  
     3   16   17 2  
     4    1    2 2  
     5    1    3 2  
     6    1    5 1  
     7   14    1 1  
     8    5    6 ar 
     9    6    7 ar 
    10    7   13 ar 
    11    8    9 ar 
    12   13    8 ar 
    13    9   10 ar 
    14   11   10 ar 
    15   12   11 ar 
    16   13   12 ar 
    17   19   18 1  
    18   18   28 2  
    19   18   32 am 
    20   19   20 1  
    21   29   19 1  
    22   20   21 1  
    23   21   22 ar 
    24   22   24 ar 
    25   21   23 ar 
    26   23   25 ar 
    27   24   26 ar 
    28   25   26 ar 
    29   26   27 1  
    30   27   30 ar 
    31   27   31 ar 
    32   29   16 am 
    33   32   33 1  
    34   32   37 1  
    35   33   34 1  
    36   34   35 1  
    37   35   36 1  
    38   36   37 1  
    39   12    4 ar 
    40    5    4 ar 
    41   14   38 1  
    42   15   39 1  
    43   15   40 1  
    44    4   41 1  
    45    6   42 1  
    46    7   43 1  
    47    8   44 1  
    48    9   45 1  
    49   10   46 1  
    50   11   47 1  
    51   19   48 1  
    52   20   49 1  
    53   20   50 1  
    54   22   51 1  
    55   23   52 1  
    56   24   53 1  
    57   25   54 1  
    58   29   55 1  
    59   30   56 1  
    60   30   57 1  
    61   31   58 1  
    62   31   59 1  
    63   33   60 1  
    64   33   61 1  
    65   34   62 1  
    66   34   63 1  
    67   35   64 1  
    68   35   65 1  
    69   36   66 1  
    70   36   67 1  
    71   37   68 1  
    72   37   69 1  
@<TRIPOS>SUBSTRUCTURE
     1 SUB1        1 GROUP

### 
### Created by X-TOOL on Tue Dec  2 13:04:55 2003
### 

@<TRIPOS>MOLECULE
1ppc-ligand.1ppc.032
   69    72     1     0     0
SMALL
MMFF94_CHARGES


@<TRIPOS>ATOM
      1 S          -7.0090    4.4680   24.4300 S.o2      1 SUB1        1.447
      2 O1         -7.5170    4.6480   25.8660 O.2       1 SUB1       -0.650
      3 O2         -6.6570    5.8280   23.8330 O.2       1 SUB1       -0.650
      4 C1         -9.4040    3.0760   24.0710 C.ar      1 SUB1       -0.150
      5 C2         -8.2940    3.6360   23.4950 C.ar      1 SUB1       -0.009
      6 C3         -8.1150    3.5200   22.1440 C.ar      1 SUB1       -0.150
      7 C4         -9.0090    2.7990   21.3870 C.ar      1 SUB1       -0.150
      8 C5        -11.0050    1.5370   21.1930 C.ar      1 SUB1       -0.150
      9 C6        -12.1400    1.0000   21.7720 C.ar      1 SUB1       -0.150
     10 C7        -12.3540    1.1300   23.1320 C.ar      1 SUB1       -0.150
     11 C8        -11.4390    1.8030   23.9260 C.ar      1 SUB1       -0.150
     12 C9        -10.3330    2.3760   23.3300 C.ar      1 SUB1        0.000
     13 C10       -10.1150    2.2350   21.9820 C.ar      1 SUB1        0.000
     14 N          -5.5470    3.6830   24.4220 N.am      1 SUB1       -0.914
     15 CA         -4.9810    3.5310   23.1030 C.3       1 SUB1        0.417
     16 C          -3.4960    3.8630   23.0200 C.2       1 SUB1        0.569
     17 O          -2.8060    4.0770   24.0240 O.2       1 SUB1       -0.570
     18 C          -0.9770    2.9350   21.3400 C.2       1 SUB1        0.569
     19 CA         -1.7410    4.2590   21.2910 C.3       1 SUB1        0.361
     20 CB         -1.7240    4.8330   19.8650 C.3       1 SUB1        0.144
     21 CG         -2.1990    6.2700   19.7950 C.ar      1 SUB1       -0.144
     22 CD1        -1.4230    7.2380   19.1840 C.ar      1 SUB1       -0.150
     23 CD2        -3.4510    6.5960   20.2630 C.ar      1 SUB1       -0.150
     24 CE1        -1.8790    8.5380   19.0730 C.ar      1 SUB1       -0.150
     25 CE2        -3.8980    7.8970   20.1540 C.ar      1 SUB1       -0.150
     26 CZ         -3.1320    8.8810   19.5400 C.ar      1 SUB1       -0.022
     27 CF         -3.6470   10.1760   19.3830 C.cat     1 SUB1        0.731
     28 O          -1.1860    2.0590   20.4940 O.2       1 SUB1       -0.570
     29 N          -3.0990    3.9910   21.7420 N.am      1 SUB1       -0.730
     30 NG1        -2.8520   11.1930   19.0010 N.pl3     1 SUB1       -1.192
     31 NG2        -4.9600   10.3630   19.5590 N.pl3     1 SUB1       -1.192
     32 N1         -0.0650    2.7460   22.3080 N.am      1 SUB1       -0.660
     33 C2          0.3730    3.8050   23.2030 C.3       1 SUB1        0.300
     34 C3          0.0990    3.3410   24.6140 C.3       1 SUB1        0.000
     35 C4          0.9840    2.1330   24.8800 C.3       1 SUB1        0.000
     36 C5          0.5930    1.0660   23.8610 C.3       1 SUB1        0.000
     37 C6          0.7290    1.5310   22.4260 C.3       1 SUB1        0.300
     38 H          -5.1010    3.3480   25.2510 H         1 SUB1        0.420
     39 HA1        -5.1200    2.4870   22.7850 H         1 SUB1        0.000
     40 HA2        -5.5220    4.1980   22.4160 H         1 SUB1        0.000
     41 H          -9.5570    3.1860   25.1380 H         1 SUB1        0.150
     42 H          -7.2660    3.9970   21.6690 H         1 SUB1        0.150
     43 H          -8.8430    2.6750   20.3230 H         1 SUB1        0.150
     44 H         -10.8170    1.4100   20.1330 H         1 SUB1        0.150
     45 H         -12.8640    0.4760   21.1580 H         1 SUB1        0.150
     46 H         -13.2430    0.7030   23.5800 H         1 SUB1        0.150
     47 H         -11.5890    1.8790   24.9970 H         1 SUB1        0.150
     48 H          -1.2670    4.9840   21.9690 H         1 SUB1        0.000
     49 H          -2.3790    4.2170   19.2330 H         1 SUB1        0.000
     50 H          -0.6950    4.7860   19.4810 H         1 SUB1        0.000
     51 H          -0.4480    6.9750   18.7890 H         1 SUB1        0.150
     52 H          -4.0810    5.8380   20.7130 H         1 SUB1        0.150
     53 H          -1.2490    9.2920   18.6160 H         1 SUB1        0.150
     54 H          -4.8700    8.1580   20.5560 H         1 SUB1        0.150
     55 H          -3.8010    3.8930   21.0370 H         1 SUB1        0.370
     56 H          -1.8280   11.0970   19.0600 H         1 SUB1        0.669
     57 H          -3.2670   12.0670   18.6500 H         1 SUB1        0.669
     58 H          -5.3020   11.2210   20.0150 H         1 SUB1        0.669
     59 H          -5.6290    9.6490   19.2400 H         1 SUB1        0.669
     60 H          -0.1850    4.7290   22.9940 H         1 SUB1        0.000
     61 H           1.4500    3.9890   23.0690 H         1 SUB1        0.000
     62 H          -0.9600    3.0610   24.7170 H         1 SUB1        0.000
     63 H           0.3370    4.1450   25.3260 H         1 SUB1        0.000
     64 H           0.8180    1.7600   25.9010 H         1 SUB1        0.000
     65 H           2.0420    2.4050   24.7560 H         1 SUB1        0.000
     66 H          -0.4540    0.7800   24.0380 H         1 SUB1        0.000
     67 H           1.2420    0.1890   24.0070 H         1 SUB1        0.000
     68 H           1.7840    1.7420   22.1940 H         1 SUB1        0.000
     69 H           0.3500    0.7600   21.7400 H         1 SUB1        0.000
@<TRIPOS>BOND
     1   15   14 1  
     2   16   15 1  
     3   16   17 2  
     4    1    2 2  
     5    1    3 2  
     6    1    5 1  
     7   14    1 1  
     8    5    6 ar 
     9    6    7 ar 
    10    7   13 ar 
    11    8    9 ar 
    12   13    8 ar 
    13    9   10 ar 
    14   11   10 ar 
    15   12   11 ar 
    16   13   12 ar 
    17   19   18 1  
    18   18   28 2  
    19   18   32 am 
    20   19   20 1  
    21   29   19 1  
    22   20   21 1  
    23   21   22 ar 
    24   22   24 ar 
    25   21   23 ar 
    26   23   25 ar 
    27   24   26 ar 
    28   25   26 ar 
    29   26   27 1  
    30   27   30 ar 
    31   27   31 ar 
    32   29   16 am 
    33   32   33 1  
    34   32   37 1  
    35   33   34 1  
    36   34   35 1  
    37   35   36 1  
    38   36   37 1  
    39   12    4 ar 
    40    5    4 ar 
    41   14   38 1  
    42   15   39 1  
    43   15   40 1  
    44    4   41 1  
    45    6   42 1  
    46    7   43 1  
    47    8   44 1  
    48    9   45 1  
    49   10   46 1  
    50   11   47 1  
    51   19   48 1  
    52   20   49 1  
    53   20   50 1  
    54   22   51 1  
    55   23   52 1  
    56   24   53 1  
    57   25   54 1  
    58   29   55 1  
    59   30   56 1  
    60   30   57 1  
    61   31   58 1  
    62   31   59 1  
    63   33   60 1  
    64   33   61 1  
    65   34   62 1  
    66   34   63 1  
    67   35   64 1  
    68   35   65 1  
    69   36   66 1  
    70   36   67 1  
    71   37   68 1  
    72   37   69 1  
@<TRIPOS>SUBSTRUCTURE
     1 SUB1        1 GROUP

### 
### Created by X-TOOL on Tue Dec  2 13:04:55 2003
### 

@<TRIPOS>MOLECULE
1ppc-ligand.1ppc.033
   69    72     1     0     0
SMALL
MMFF94_CHARGES


@<TRIPOS>ATOM
      1 S          -5.0850    4.2070   25.6170 S.o2      1 SUB1        1.447
      2 O1         -6.1870    5.2680   25.4990 O.2       1 SUB1       -0.650
      3 O2         -5.6940    2.8780   26.0550 O.2       1 SUB1       -0.650
      4 C1         -3.1990    3.9960   27.6680 C.ar      1 SUB1       -0.150
      5 C2         -3.8700    4.8090   26.7920 C.ar      1 SUB1       -0.009
      6 C3         -3.6510    6.1580   26.8360 C.ar      1 SUB1       -0.150
      7 C4         -2.8130    6.6920   27.7870 C.ar      1 SUB1       -0.150
      8 C5         -1.3030    6.4260   29.5940 C.ar      1 SUB1       -0.150
      9 C6         -0.6040    5.6000   30.4550 C.ar      1 SUB1       -0.150
     10 C7         -0.7900    4.2310   30.4080 C.ar      1 SUB1       -0.150
     11 C8         -1.6720    3.6720   29.4960 C.ar      1 SUB1       -0.150
     12 C9         -2.3290    4.5020   28.6100 C.ar      1 SUB1        0.000
     13 C10        -2.1540    5.8630   28.6660 C.ar      1 SUB1        0.000
     14 N          -4.4630    3.8430   24.1230 N.am      1 SUB1       -0.914
     15 CA         -3.4590    2.8070   24.1530 C.3       1 SUB1        0.417
     16 C          -3.0290    2.3170   22.7760 C.2       1 SUB1        0.569
     17 O          -3.5060    1.3030   22.2520 O.2       1 SUB1       -0.570
     18 C          -0.4090    4.0630   20.8130 C.2       1 SUB1        0.569
     19 CA         -1.3910    2.9040   20.9860 C.3       1 SUB1        0.361
     20 CB         -0.6560    1.5590   20.8710 C.3       1 SUB1        0.144
     21 CG         -0.6040    1.0260   19.4540 C.ar      1 SUB1       -0.144
     22 CD1         0.5010    1.2590   18.6540 C.ar      1 SUB1       -0.150
     23 CD2        -1.6240    0.2300   18.9890 C.ar      1 SUB1       -0.150
     24 CE1         0.5710    0.7290   17.3800 C.ar      1 SUB1       -0.150
     25 CE2        -1.5510   -0.2930   17.7130 C.ar      1 SUB1       -0.150
     26 CZ         -0.4470   -0.0710   16.8990 C.ar      1 SUB1       -0.022
     27 CF         -0.3730   -0.6750   15.6350 C.cat     1 SUB1        0.731
     28 O           0.6840    4.0500   21.3910 O.2       1 SUB1       -0.570
     29 N          -2.0180    3.0590   22.2910 N.am      1 SUB1       -0.730
     30 NG1        -1.2750   -0.3870   14.6790 N.pl3     1 SUB1       -1.192
     31 NG2         0.6550   -1.4940   15.3830 N.pl3     1 SUB1       -1.192
     32 N1         -0.7450    5.0880   20.0140 N.am      1 SUB1       -0.660
     33 C2         -1.9160    5.0700   19.1520 C.3       1 SUB1        0.300
     34 C3         -2.7690    6.2570   19.5310 C.3       1 SUB1        0.000
     35 C4         -1.9820    7.5140   19.1920 C.3       1 SUB1        0.000
     36 C5         -0.7000    7.4690   20.0190 C.3       1 SUB1        0.000
     37 C6          0.1290    6.2260   19.7680 C.3       1 SUB1        0.300
     38 H          -4.7560    4.2980   23.2820 H         1 SUB1        0.420
     39 HA1        -2.5720    3.2010   24.6720 H         1 SUB1        0.000
     40 HA2        -3.8620    1.9510   24.7140 H         1 SUB1        0.000
     41 H          -3.3570    2.9240   27.6190 H         1 SUB1        0.150
     42 H          -4.1390    6.8080   26.1190 H         1 SUB1        0.150
     43 H          -2.6730    7.7660   27.8450 H         1 SUB1        0.150
     44 H          -1.1850    7.5030   29.6480 H         1 SUB1        0.150
     45 H           0.0920    6.0270   31.1690 H         1 SUB1        0.150
     46 H          -0.2430    3.5900   31.0890 H         1 SUB1        0.150
     47 H          -1.8430    2.6010   29.4800 H         1 SUB1        0.150
     48 H          -2.1610    2.9540   20.2020 H         1 SUB1        0.000
     49 H          -1.1740    0.8220   21.5030 H         1 SUB1        0.000
     50 H           0.3740    1.6910   21.2330 H         1 SUB1        0.000
     51 H           1.3190    1.8630   19.0310 H         1 SUB1        0.150
     52 H          -2.4800    0.0130   19.6190 H         1 SUB1        0.150
     53 H           1.4300    0.9420   16.7550 H         1 SUB1        0.150
     54 H          -2.3730   -0.8900   17.3380 H         1 SUB1        0.150
     55 H          -1.6650    3.7850   22.8810 H         1 SUB1        0.370
     56 H          -0.9610   -0.0440   13.7600 H         1 SUB1        0.669
     57 H          -2.2800   -0.5100   14.8660 H         1 SUB1        0.669
     58 H           0.5960   -2.1710   14.6090 H         1 SUB1        0.669
     59 H           1.5040   -1.4480   15.9630 H         1 SUB1        0.669
     60 H          -2.4800    4.1370   19.3020 H         1 SUB1        0.000
     61 H          -1.6090    5.1470   18.0980 H         1 SUB1        0.000
     62 H          -2.9920    6.2320   20.6080 H         1 SUB1        0.000
     63 H          -3.7110    6.2400   18.9620 H         1 SUB1        0.000
     64 H          -2.5670    8.4080   19.4510 H         1 SUB1        0.000
     65 H          -1.7400    7.5310   18.1200 H         1 SUB1        0.000
     66 H          -0.9700    7.4990   21.0850 H         1 SUB1        0.000
     67 H          -0.0910    8.3510   19.7690 H         1 SUB1        0.000
     68 H           0.4870    6.2120   18.7280 H         1 SUB1        0.000
     69 H           0.9890    6.1990   20.4520 H         1 SUB1        0.000
@<TRIPOS>BOND
     1   15   14 1  
     2   16   15 1  
     3   16   17 2  
     4    1    2 2  
     5    1    3 2  
     6    1    5 1  
     7   14    1 1  
     8    5    6 ar 
     9    6    7 ar 
    10    7   13 ar 
    11    8    9 ar 
    12   13    8 ar 
    13    9   10 ar 
    14   11   10 ar 
    15   12   11 ar 
    16   13   12 ar 
    17   19   18 1  
    18   18   28 2  
    19   18   32 am 
    20   19   20 1  
    21   29   19 1  
    22   20   21 1  
    23   21   22 ar 
    24   22   24 ar 
    25   21   23 ar 
    26   23   25 ar 
    27   24   26 ar 
    28   25   26 ar 
    29   26   27 1  
    30   27   30 ar 
    31   27   31 ar 
    32   29   16 am 
    33   32   33 1  
    34   32   37 1  
    35   33   34 1  
    36   34   35 1  
    37   35   36 1  
    38   36   37 1  
    39   12    4 ar 
    40    5    4 ar 
    41   14   38 1  
    42   15   39 1  
    43   15   40 1  
    44    4   41 1  
    45    6   42 1  
    46    7   43 1  
    47    8   44 1  
    48    9   45 1  
    49   10   46 1  
    50   11   47 1  
    51   19   48 1  
    52   20   49 1  
    53   20   50 1  
    54   22   51 1  
    55   23   52 1  
    56   24   53 1  
    57   25   54 1  
    58   29   55 1  
    59   30   56 1  
    60   30   57 1  
    61   31   58 1  
    62   31   59 1  
    63   33   60 1  
    64   33   61 1  
    65   34   62 1  
    66   34   63 1  
    67   35   64 1  
    68   35   65 1  
    69   36   66 1  
    70   36   67 1  
    71   37   68 1  
    72   37   69 1  
@<TRIPOS>SUBSTRUCTURE
     1 SUB1        1 GROUP

### 
### Created by X-TOOL on Tue Dec  2 13:04:55 2003
### 

@<TRIPOS>MOLECULE
1ppc-ligand.1ppc.034
   69    72     1     0     0
SMALL
MMFF94_CHARGES


@<TRIPOS>ATOM
      1 S          -2.9350   -1.8830   18.1430 S.o2      1 SUB1        1.447
      2 O1         -2.6170   -2.6250   16.8380 O.2       1 SUB1       -0.650
      3 O2         -2.0730   -2.4360   19.2740 O.2       1 SUB1       -0.650
      4 C1         -5.6090   -2.3780   17.5030 C.ar      1 SUB1       -0.150
      5 C2         -4.6870   -2.0830   18.4730 C.ar      1 SUB1       -0.009
      6 C3         -5.1130   -1.8770   19.7560 C.ar      1 SUB1       -0.150
      7 C4         -6.4560   -1.9090   20.0520 C.ar      1 SUB1       -0.150
      8 C5         -8.7090   -2.2430   19.3970 C.ar      1 SUB1       -0.150
      9 C6         -9.6330   -2.5730   18.4230 C.ar      1 SUB1       -0.150
     10 C7         -9.2190   -2.8120   17.1260 C.ar      1 SUB1       -0.150
     11 C8         -7.8770   -2.7310   16.7890 C.ar      1 SUB1       -0.150
     12 C9         -6.9580   -2.4480   17.7800 C.ar      1 SUB1        0.000
     13 C10        -7.3710   -2.1980   19.0650 C.ar      1 SUB1        0.000
     14 N          -2.4380   -0.3030   18.0510 N.am      1 SUB1       -0.914
     15 CA         -2.6540    0.4420   19.2690 C.3       1 SUB1        0.417
     16 C          -1.8210    1.7130   19.3780 C.2       1 SUB1        0.569
     17 O          -0.8710    1.9520   18.6230 O.2       1 SUB1       -0.570
     18 C          -0.4050    3.4710   21.6820 C.2       1 SUB1        0.569
     19 CA         -1.6430    3.7380   20.8260 C.3       1 SUB1        0.361
     20 CB         -1.2710    4.5790   19.5950 C.3       1 SUB1        0.144
     21 CG         -1.9930    5.9100   19.5400 C.ar      1 SUB1       -0.144
     22 CD1        -3.3680    5.9590   19.4000 C.ar      1 SUB1       -0.150
     23 CD2        -1.2850    7.0750   19.7200 C.ar      1 SUB1       -0.150
     24 CE1        -4.0330    7.1700   19.4030 C.ar      1 SUB1       -0.150
     25 CE2        -1.9540    8.2830   19.7160 C.ar      1 SUB1       -0.150
     26 CZ         -3.3360    8.3490   19.5800 C.ar      1 SUB1       -0.022
     27 CF         -3.9900    9.5870   19.6530 C.cat     1 SUB1        0.731
     28 O           0.4900    2.7230   21.2740 O.2       1 SUB1       -0.570
     29 N          -2.1920    2.4450   20.4430 N.am      1 SUB1       -0.730
     30 NG1        -3.3380   10.6900   20.0650 N.pl3     1 SUB1       -1.192
     31 NG2        -5.2620    9.6570   19.2400 N.pl3     1 SUB1       -1.192
     32 N1         -0.2990    4.0730   22.8780 N.am      1 SUB1       -0.660
     33 C2         -1.2090    5.1140   23.3260 C.3       1 SUB1        0.300
     34 C3         -1.8250    4.6440   24.6220 C.3       1 SUB1        0.000
     35 C4         -0.7100    4.5500   25.6520 C.3       1 SUB1        0.000
     36 C5          0.2990    3.5360   25.1200 C.3       1 SUB1        0.000
     37 C6          0.8500    3.9000   23.7570 C.3       1 SUB1        0.300
     38 H          -2.0270    0.0960   17.2310 H         1 SUB1        0.420
     39 HA1        -3.7180    0.7200   19.3190 H         1 SUB1        0.000
     40 HA2        -2.4050   -0.2080   20.1200 H         1 SUB1        0.000
     41 H          -5.2690   -2.5620   16.4910 H         1 SUB1        0.150
     42 H          -4.3910   -1.6890   20.5410 H         1 SUB1        0.150
     43 H          -6.7940   -1.7050   21.0620 H         1 SUB1        0.150
     44 H          -9.0310   -2.0240   20.4090 H         1 SUB1        0.150
     45 H         -10.6850   -2.6440   18.6770 H         1 SUB1        0.150
     46 H          -9.9500   -3.0650   16.3660 H         1 SUB1        0.150
     47 H          -7.5550   -2.8870   15.7650 H         1 SUB1        0.150
     48 H          -2.3890    4.2900   21.4180 H         1 SUB1        0.000
     49 H          -1.5240    4.0060   18.6910 H         1 SUB1        0.000
     50 H          -0.1880    4.7700   19.6160 H         1 SUB1        0.000
     51 H          -3.9300    5.0380   19.2870 H         1 SUB1        0.150
     52 H          -0.2110    7.0460   19.8630 H         1 SUB1        0.150
     53 H          -5.1070    7.1950   19.2660 H         1 SUB1        0.150
     54 H          -1.3890    9.2010   19.8230 H         1 SUB1        0.150
     55 H          -2.9100    2.0660   21.0270 H         1 SUB1        0.370
     56 H          -2.5930   10.6130   20.7720 H         1 SUB1        0.669
     57 H          -3.5830   11.6100   19.6720 H         1 SUB1        0.669
     58 H          -5.7100   10.5750   19.1070 H         1 SUB1        0.669
     59 H          -5.7920    8.7940   19.0570 H         1 SUB1        0.669
     60 H          -1.9940    5.2780   22.5730 H         1 SUB1        0.000
     61 H          -0.6570    6.0520   23.4890 H         1 SUB1        0.000
     62 H          -2.2910    3.6580   24.4810 H         1 SUB1        0.000
     63 H          -2.5860    5.3640   24.9590 H         1 SUB1        0.000
     64 H          -1.1130    4.2110   26.6170 H         1 SUB1        0.000
     65 H          -0.2290    5.5300   25.7800 H         1 SUB1        0.000
     66 H          -0.1960    2.5560   25.0470 H         1 SUB1        0.000
     67 H           1.1370    3.4710   25.8300 H         1 SUB1        0.000
     68 H           1.4250    4.8350   23.8170 H         1 SUB1        0.000
     69 H           1.4970    3.0940   23.3810 H         1 SUB1        0.000
@<TRIPOS>BOND
     1   15   14 1  
     2   16   15 1  
     3   16   17 2  
     4    1    2 2  
     5    1    3 2  
     6    1    5 1  
     7   14    1 1  
     8    5    6 ar 
     9    6    7 ar 
    10    7   13 ar 
    11    8    9 ar 
    12   13    8 ar 
    13    9   10 ar 
    14   11   10 ar 
    15   12   11 ar 
    16   13   12 ar 
    17   19   18 1  
    18   18   28 2  
    19   18   32 am 
    20   19   20 1  
    21   29   19 1  
    22   20   21 1  
    23   21   22 ar 
    24   22   24 ar 
    25   21   23 ar 
    26   23   25 ar 
    27   24   26 ar 
    28   25   26 ar 
    29   26   27 1  
    30   27   30 ar 
    31   27   31 ar 
    32   29   16 am 
    33   32   33 1  
    34   32   37 1  
    35   33   34 1  
    36   34   35 1  
    37   35   36 1  
    38   36   37 1  
    39   12    4 ar 
    40    5    4 ar 
    41   14   38 1  
    42   15   39 1  
    43   15   40 1  
    44    4   41 1  
    45    6   42 1  
    46    7   43 1  
    47    8   44 1  
    48    9   45 1  
    49   10   46 1  
    50   11   47 1  
    51   19   48 1  
    52   20   49 1  
    53   20   50 1  
    54   22   51 1  
    55   23   52 1  
    56   24   53 1  
    57   25   54 1  
    58   29   55 1  
    59   30   56 1  
    60   30   57 1  
    61   31   58 1  
    62   31   59 1  
    63   33   60 1  
    64   33   61 1  
    65   34   62 1  
    66   34   63 1  
    67   35   64 1  
    68   35   65 1  
    69   36   66 1  
    70   36   67 1  
    71   37   68 1  
    72   37   69 1  
@<TRIPOS>SUBSTRUCTURE
     1 SUB1        1 GROUP

### 
### Created by X-TOOL on Tue Dec  2 13:04:55 2003
### 

@<TRIPOS>MOLECULE
1ppc-ligand.1ppc.035
   69    72     1     0     0
SMALL
MMFF94_CHARGES


@<TRIPOS>ATOM
      1 S          -2.5550    0.0090   20.9240 S.o2      1 SUB1        1.447
      2 O1         -3.1290   -0.4200   22.2800 O.2       1 SUB1       -0.650
      3 O2         -1.1400   -0.5420   20.7650 O.2       1 SUB1       -0.650
      4 C1         -3.7220    2.5430   21.0740 C.ar      1 SUB1       -0.150
      5 C2         -2.5900    1.8010   20.8560 C.ar      1 SUB1       -0.009
      6 C3         -1.4310    2.4410   20.5160 C.ar      1 SUB1       -0.150
      7 C4         -1.4190    3.8060   20.3410 C.ar      1 SUB1       -0.150
      8 C5         -2.5180    5.9040   20.3930 C.ar      1 SUB1       -0.150
      9 C6         -3.6530    6.6520   20.6460 C.ar      1 SUB1       -0.150
     10 C7         -4.8290    6.0260   21.0170 C.ar      1 SUB1       -0.150
     11 C8         -4.8820    4.6470   21.1450 C.ar      1 SUB1       -0.150
     12 C9         -3.7300    3.9140   20.9360 C.ar      1 SUB1        0.000
     13 C10        -2.5660    4.5350   20.5560 C.ar      1 SUB1        0.000
     14 N          -3.3700   -0.7340   19.6840 N.am      1 SUB1       -0.914
     15 CA         -2.8440   -0.4200   18.3780 C.3       1 SUB1        0.417
     16 C          -1.7700   -1.3850   17.8910 C.2       1 SUB1        0.569
     17 O          -2.0160   -2.5610   17.5950 O.2       1 SUB1       -0.570
     18 C           0.6900   -1.4470   15.9780 C.2       1 SUB1        0.569
     19 CA          0.6960   -1.4320   17.5070 C.3       1 SUB1        0.361
     20 CB          1.9160   -0.6550   18.0290 C.3       1 SUB1        0.144
     21 CG          2.8260   -1.4920   18.9040 C.ar      1 SUB1       -0.144
     22 CD1         3.8400   -2.2490   18.3440 C.ar      1 SUB1       -0.150
     23 CD2         2.7010   -1.4290   20.2720 C.ar      1 SUB1       -0.150
     24 CE1         4.7030   -2.9710   19.1460 C.ar      1 SUB1       -0.150
     25 CE2         3.5630   -2.1570   21.0680 C.ar      1 SUB1       -0.150
     26 CZ          4.5880   -2.9200   20.5210 C.ar      1 SUB1       -0.022
     27 CF          5.4900   -3.5890   21.3600 C.cat     1 SUB1        0.731
     28 O           0.8060   -0.3950   15.3400 O.2       1 SUB1       -0.570
     29 N          -0.5520   -0.8180   17.9390 N.am      1 SUB1       -0.730
     30 NG1         5.7860   -4.8870   21.1590 N.pl3     1 SUB1       -1.192
     31 NG2         6.0980   -2.8900   22.3250 N.pl3     1 SUB1       -1.192
     32 N1          0.5710   -2.6230   15.3400 N.am      1 SUB1       -0.660
     33 C2          0.6370   -3.9050   16.0210 C.3       1 SUB1        0.300
     34 C3         -0.6510   -4.6370   15.7240 C.3       1 SUB1        0.000
     35 C4         -0.6820   -4.9220   14.2310 C.3       1 SUB1        0.000
     36 C5         -0.6370   -3.5720   13.5210 C.3       1 SUB1        0.000
     37 C6          0.5770   -2.7440   13.8890 C.3       1 SUB1        0.300
     38 H          -4.1520   -1.3410   19.8290 H         1 SUB1        0.420
     39 HA1        -3.6750   -0.4370   17.6570 H         1 SUB1        0.000
     40 HA2        -2.4100    0.5900   18.4130 H         1 SUB1        0.000
     41 H          -4.6360    2.0370   21.3640 H         1 SUB1        0.150
     42 H          -0.5180    1.8720   20.3860 H         1 SUB1        0.150
     43 H          -0.5080    4.3060   20.0330 H         1 SUB1        0.150
     44 H          -1.6020    6.3870   20.0710 H         1 SUB1        0.150
     45 H          -3.6220    7.7320   20.5530 H         1 SUB1        0.150
     46 H          -5.7160    6.6190   21.2080 H         1 SUB1        0.150
     47 H          -5.8110    4.1530   21.4050 H         1 SUB1        0.150
     48 H           0.7460   -2.4640   17.8860 H         1 SUB1        0.000
     49 H           1.5590    0.2030   18.6160 H         1 SUB1        0.000
     50 H           2.4960   -0.2940   17.1670 H         1 SUB1        0.000
     51 H           3.9570   -2.2770   17.2660 H         1 SUB1        0.150
     52 H           1.9310   -0.8130   20.7230 H         1 SUB1        0.150
     53 H           5.4760   -3.5810   18.6920 H         1 SUB1        0.150
     54 H           3.4390   -2.1320   22.1440 H         1 SUB1        0.150
     55 H          -0.4970    0.1110   18.3050 H         1 SUB1        0.370
     56 H           5.0660   -5.6080   21.3050 H         1 SUB1        0.669
     57 H           6.7330   -5.1580   20.8600 H         1 SUB1        0.669
     58 H           6.1210   -1.8610   22.2800 H         1 SUB1        0.669
     59 H           6.5440   -3.3800   23.1140 H         1 SUB1        0.669
     60 H           0.7420   -3.7510   17.1050 H         1 SUB1        0.000
     61 H           1.4950   -4.4850   15.6490 H         1 SUB1        0.000
     62 H          -1.5110   -4.0110   16.0050 H         1 SUB1        0.000
     63 H          -0.6840   -5.5810   16.2870 H         1 SUB1        0.000
     64 H          -1.6050   -5.4580   13.9670 H         1 SUB1        0.000
     65 H           0.1890   -5.5290   13.9430 H         1 SUB1        0.000
     66 H          -1.5410   -3.0060   13.7890 H         1 SUB1        0.000
     67 H          -0.6240   -3.7480   12.4350 H         1 SUB1        0.000
     68 H           1.4960   -3.2470   13.5530 H         1 SUB1        0.000
     69 H           0.5120   -1.7490   13.4240 H         1 SUB1        0.000
@<TRIPOS>BOND
     1   15   14 1  
     2   16   15 1  
     3   16   17 2  
     4    1    2 2  
     5    1    3 2  
     6    1    5 1  
     7   14    1 1  
     8    5    6 ar 
     9    6    7 ar 
    10    7   13 ar 
    11    8    9 ar 
    12   13    8 ar 
    13    9   10 ar 
    14   11   10 ar 
    15   12   11 ar 
    16   13   12 ar 
    17   19   18 1  
    18   18   28 2  
    19   18   32 am 
    20   19   20 1  
    21   29   19 1  
    22   20   21 1  
    23   21   22 ar 
    24   22   24 ar 
    25   21   23 ar 
    26   23   25 ar 
    27   24   26 ar 
    28   25   26 ar 
    29   26   27 1  
    30   27   30 ar 
    31   27   31 ar 
    32   29   16 am 
    33   32   33 1  
    34   32   37 1  
    35   33   34 1  
    36   34   35 1  
    37   35   36 1  
    38   36   37 1  
    39   12    4 ar 
    40    5    4 ar 
    41   14   38 1  
    42   15   39 1  
    43   15   40 1  
    44    4   41 1  
    45    6   42 1  
    46    7   43 1  
    47    8   44 1  
    48    9   45 1  
    49   10   46 1  
    50   11   47 1  
    51   19   48 1  
    52   20   49 1  
    53   20   50 1  
    54   22   51 1  
    55   23   52 1  
    56   24   53 1  
    57   25   54 1  
    58   29   55 1  
    59   30   56 1  
    60   30   57 1  
    61   31   58 1  
    62   31   59 1  
    63   33   60 1  
    64   33   61 1  
    65   34   62 1  
    66   34   63 1  
    67   35   64 1  
    68   35   65 1  
    69   36   66 1  
    70   36   67 1  
    71   37   68 1  
    72   37   69 1  
@<TRIPOS>SUBSTRUCTURE
     1 SUB1        1 GROUP

### 
### Created by X-TOOL on Tue Dec  2 13:04:55 2003
### 

@<TRIPOS>MOLECULE
1ppc-ligand.1ppc.036
   69    72     1     0     0
SMALL
MMFF94_CHARGES


@<TRIPOS>ATOM
      1 S          -3.9300    2.9310   22.0490 S.o2      1 SUB1        1.447
      2 O1         -2.7510    2.0400   21.6400 O.2       1 SUB1       -0.650
      3 O2         -5.2450    2.2390   21.7020 O.2       1 SUB1       -0.650
      4 C1         -2.5450    5.0000   20.7820 C.ar      1 SUB1       -0.150
      5 C2         -3.7520    4.5000   21.1980 C.ar      1 SUB1       -0.009
      6 C3         -4.8820    5.2460   21.0080 C.ar      1 SUB1       -0.150
      7 C4         -4.7960    6.5050   20.4610 C.ar      1 SUB1       -0.150
      8 C5         -3.5260    8.2540   19.4900 C.ar      1 SUB1       -0.150
      9 C6         -2.3120    8.7420   19.0420 C.ar      1 SUB1       -0.150
     10 C7         -1.1610    7.9910   19.2000 C.ar      1 SUB1       -0.150
     11 C8         -1.2110    6.7430   19.8000 C.ar      1 SUB1       -0.150
     12 C9         -2.4360    6.2460   20.2010 C.ar      1 SUB1        0.000
     13 C10        -3.5760    6.9970   20.0560 C.ar      1 SUB1        0.000
     14 N          -4.0190    3.0610   23.7010 N.am      1 SUB1       -0.914
     15 CA         -5.1430    3.8410   24.1590 C.3       1 SUB1        0.417
     16 C          -5.0520    4.2660   25.6200 C.2       1 SUB1        0.569
     17 O          -5.0430    3.4510   26.5500 O.2       1 SUB1       -0.570
     18 C          -3.4990    6.6150   27.2260 C.2       1 SUB1        0.569
     19 CA         -4.9860    6.3580   26.9790 C.3       1 SUB1        0.361
     20 CB         -5.7520    7.6880   26.9000 C.3       1 SUB1        0.144
     21 CG         -6.5400    7.9990   28.1560 C.ar      1 SUB1       -0.144
     22 CD1        -6.4350    9.2370   28.7640 C.ar      1 SUB1       -0.150
     23 CD2        -7.4350    7.0750   28.6440 C.ar      1 SUB1       -0.150
     24 CE1        -7.1930    9.5390   29.8790 C.ar      1 SUB1       -0.150
     25 CE2        -8.1850    7.3810   29.7610 C.ar      1 SUB1       -0.150
     26 CZ         -8.0930    8.6210   30.3820 C.ar      1 SUB1       -0.022
     27 CF         -8.9220    8.9240   31.4720 C.cat     1 SUB1        0.731
     28 O          -2.7410    6.8630   26.2830 O.2       1 SUB1       -0.570
     29 N          -5.0940    5.6040   25.7380 N.am      1 SUB1       -0.730
     30 NG1       -10.2070    9.2790   31.2850 N.pl3     1 SUB1       -1.192
     31 NG2        -8.4220    8.7900   32.7060 N.pl3     1 SUB1       -1.192
     32 N1         -3.0330    6.5820   28.4850 N.am      1 SUB1       -0.660
     33 C2         -3.9000    6.5000   29.6500 C.3       1 SUB1        0.300
     34 C3         -3.4970    5.2670   30.4230 C.3       1 SUB1        0.000
     35 C4         -2.0800    5.4870   30.9310 C.3       1 SUB1        0.000
     36 C5         -1.1950    5.6840   29.7040 C.3       1 SUB1        0.000
     37 C6         -1.6400    6.8350   28.8250 C.3       1 SUB1        0.300
     38 H          -3.3560    2.6390   24.3200 H         1 SUB1        0.420
     39 HA1        -5.2110    4.7470   23.5390 H         1 SUB1        0.000
     40 HA2        -6.0550    3.2400   24.0310 H         1 SUB1        0.000
     41 H          -1.6520    4.4000   20.9140 H         1 SUB1        0.150
     42 H          -5.8480    4.8440   21.2900 H         1 SUB1        0.150
     43 H          -5.6890    7.1100   20.3480 H         1 SUB1        0.150
     44 H          -4.4260    8.8510   19.3970 H         1 SUB1        0.150
     45 H          -2.2620    9.7150   18.5670 H         1 SUB1        0.150
     46 H          -0.2120    8.3830   18.8510 H         1 SUB1        0.150
     47 H          -0.3060    6.1680   19.9530 H         1 SUB1        0.150
     48 H          -5.3990    5.7610   27.8060 H         1 SUB1        0.000
     49 H          -6.4510    7.6390   26.0520 H         1 SUB1        0.000
     50 H          -5.0290    8.4990   26.7310 H         1 SUB1        0.000
     51 H          -5.7510    9.9770   28.3630 H         1 SUB1        0.150
     52 H          -7.5500    6.1150   28.1550 H         1 SUB1        0.150
     53 H          -7.0800   10.5030   30.3620 H         1 SUB1        0.150
     54 H          -8.8630    6.6370   30.1630 H         1 SUB1        0.150
     55 H          -5.2110    6.1310   24.8960 H         1 SUB1        0.370
     56 H         -10.4730    9.8320   30.4580 H         1 SUB1        0.669
     57 H         -10.9230    8.9960   31.9680 H         1 SUB1        0.669
     58 H          -9.0490    8.5820   33.4970 H         1 SUB1        0.669
     59 H          -7.4100    8.8940   32.8660 H         1 SUB1        0.669
     60 H          -4.9500    6.4200   29.3330 H         1 SUB1        0.000
     61 H          -3.7730    7.3960   30.2760 H         1 SUB1        0.000
     62 H          -3.5270    4.3850   29.7650 H         1 SUB1        0.000
     63 H          -4.1800    5.1150   31.2710 H         1 SUB1        0.000
     64 H          -1.7430    4.6110   31.5040 H         1 SUB1        0.000
     65 H          -2.0430    6.3800   31.5710 H         1 SUB1        0.000
     66 H          -1.2140    4.7600   29.1070 H         1 SUB1        0.000
     67 H          -0.1660    5.8800   30.0420 H         1 SUB1        0.000
     68 H          -1.5480    7.7860   29.3700 H         1 SUB1        0.000
     69 H          -1.0270    6.8740   27.9130 H         1 SUB1        0.000
@<TRIPOS>BOND
     1   15   14 1  
     2   16   15 1  
     3   16   17 2  
     4    1    2 2  
     5    1    3 2  
     6    1    5 1  
     7   14    1 1  
     8    5    6 ar 
     9    6    7 ar 
    10    7   13 ar 
    11    8    9 ar 
    12   13    8 ar 
    13    9   10 ar 
    14   11   10 ar 
    15   12   11 ar 
    16   13   12 ar 
    17   19   18 1  
    18   18   28 2  
    19   18   32 am 
    20   19   20 1  
    21   29   19 1  
    22   20   21 1  
    23   21   22 ar 
    24   22   24 ar 
    25   21   23 ar 
    26   23   25 ar 
    27   24   26 ar 
    28   25   26 ar 
    29   26   27 1  
    30   27   30 ar 
    31   27   31 ar 
    32   29   16 am 
    33   32   33 1  
    34   32   37 1  
    35   33   34 1  
    36   34   35 1  
    37   35   36 1  
    38   36   37 1  
    39   12    4 ar 
    40    5    4 ar 
    41   14   38 1  
    42   15   39 1  
    43   15   40 1  
    44    4   41 1  
    45    6   42 1  
    46    7   43 1  
    47    8   44 1  
    48    9   45 1  
    49   10   46 1  
    50   11   47 1  
    51   19   48 1  
    52   20   49 1  
    53   20   50 1  
    54   22   51 1  
    55   23   52 1  
    56   24   53 1  
    57   25   54 1  
    58   29   55 1  
    59   30   56 1  
    60   30   57 1  
    61   31   58 1  
    62   31   59 1  
    63   33   60 1  
    64   33   61 1  
    65   34   62 1  
    66   34   63 1  
    67   35   64 1  
    68   35   65 1  
    69   36   66 1  
    70   36   67 1  
    71   37   68 1  
    72   37   69 1  
@<TRIPOS>SUBSTRUCTURE
     1 SUB1        1 GROUP

### 
### Created by X-TOOL on Tue Dec  2 13:04:55 2003
### 

@<TRIPOS>MOLECULE
1ppc-ligand.1ppc.037
   69    72     1     0     0
SMALL
MMFF94_CHARGES


@<TRIPOS>ATOM
      1 S           0.6020   -2.7380   16.7070 S.o2      1 SUB1        1.447
      2 O1          0.2190   -4.2170   16.5590 O.2       1 SUB1       -0.650
      3 O2          0.8060   -2.1180   15.3280 O.2       1 SUB1       -0.650
      4 C1          2.6580   -3.7500   18.3050 C.ar      1 SUB1       -0.150
      5 C2          2.0880   -2.6550   17.7090 C.ar      1 SUB1       -0.009
      6 C3          2.6370   -1.4210   17.9190 C.ar      1 SUB1       -0.150
      7 C4          3.7120   -1.2770   18.7660 C.ar      1 SUB1       -0.150
      8 C5          5.3590   -2.2110   20.1900 C.ar      1 SUB1       -0.150
      9 C6          5.9510   -3.3200   20.7650 C.ar      1 SUB1       -0.150
     10 C7          5.4280   -4.5800   20.5430 C.ar      1 SUB1       -0.150
     11 C8          4.3110   -4.7470   19.7390 C.ar      1 SUB1       -0.150
     12 C9          3.7550   -3.6370   19.1330 C.ar      1 SUB1        0.000
     13 C10         4.2680   -2.3850   19.3640 C.ar      1 SUB1        0.000
     14 N          -0.6730   -1.8630   17.3100 N.am      1 SUB1       -0.914
     15 CA         -0.4010   -0.4510   17.4210 C.3       1 SUB1        0.417
     16 C          -0.7060    0.1360   18.7940 C.2       1 SUB1        0.569
     17 O          -0.1820   -0.2900   19.8310 O.2       1 SUB1       -0.570
     18 C          -2.4790    0.9040   20.9780 C.2       1 SUB1        0.569
     19 CA         -2.1820    1.8640   19.8270 C.3       1 SUB1        0.361
     20 CB         -1.1660    2.9300   20.2680 C.3       1 SUB1        0.144
     21 CG         -1.5990    4.3430   19.9330 C.ar      1 SUB1       -0.144
     22 CD1        -2.5680    4.9800   20.6880 C.ar      1 SUB1       -0.150
     23 CD2        -0.9610    5.0290   18.9260 C.ar      1 SUB1       -0.150
     24 CE1        -2.9250    6.2860   20.4150 C.ar      1 SUB1       -0.150
     25 CE2        -1.3260    6.3320   18.6550 C.ar      1 SUB1       -0.150
     26 CZ         -2.2950    6.9870   19.4050 C.ar      1 SUB1       -0.022
     27 CF         -2.5910    8.3330   19.1490 C.cat     1 SUB1        0.731
     28 O          -1.8040    0.9380   22.0130 O.2       1 SUB1       -0.570
     29 N          -1.6720    1.0680   18.7190 N.am      1 SUB1       -0.730
     30 NG1        -1.6080    9.2320   18.9580 N.pl3     1 SUB1       -1.192
     31 NG2        -3.8760    8.6900   19.0350 N.pl3     1 SUB1       -1.192
     32 N1         -3.4930    0.0320   20.8530 N.am      1 SUB1       -0.660
     33 C2         -4.4470    0.0770   19.7570 C.3       1 SUB1        0.300
     34 C3         -4.3960   -1.2630   19.0630 C.3       1 SUB1        0.000
     35 C4         -4.8930   -2.3090   20.0490 C.3       1 SUB1        0.000
     36 C5         -3.9500   -2.2710   21.2480 C.3       1 SUB1        0.000
     37 C6         -3.8690   -0.9070   21.9010 C.3       1 SUB1        0.300
     38 H          -1.5460   -2.2760   17.5710 H         1 SUB1        0.420
     39 HA1         0.6650   -0.2860   17.2040 H         1 SUB1        0.000
     40 HA2        -1.0130    0.0790   16.6760 H         1 SUB1        0.000
     41 H           2.2350   -4.7310   18.1220 H         1 SUB1        0.150
     42 H           2.2250   -0.5540   17.4170 H         1 SUB1        0.150
     43 H           4.1200   -0.2920   18.9610 H         1 SUB1        0.150
     44 H           5.7470   -1.2180   20.3870 H         1 SUB1        0.150
     45 H           6.8290   -3.2020   21.3910 H         1 SUB1        0.150
     46 H           5.8940   -5.4450   21.0010 H         1 SUB1        0.150
     47 H           3.8800   -5.7300   19.5900 H         1 SUB1        0.150
     48 H          -3.1100    2.3680   19.5170 H         1 SUB1        0.000
     49 H          -0.2080    2.7290   19.7660 H         1 SUB1        0.000
     50 H          -1.0310    2.8550   21.3570 H         1 SUB1        0.000
     51 H          -3.0510    4.4490   21.5000 H         1 SUB1        0.150
     52 H          -0.1770    4.5500   18.3500 H         1 SUB1        0.150
     53 H          -3.7050    6.7630   20.9970 H         1 SUB1        0.150
     54 H          -0.8460    6.8570   17.8380 H         1 SUB1        0.150
     55 H          -2.0790    1.2290   17.8200 H         1 SUB1        0.370
     56 H          -1.6420    9.8700   18.1500 H         1 SUB1        0.669
     57 H          -0.8200    9.2820   19.6190 H         1 SUB1        0.669
     58 H          -4.3240    8.7140   18.1070 H         1 SUB1        0.669
     59 H          -4.4180    8.9400   19.8740 H         1 SUB1        0.669
     60 H          -4.1740    0.8780   19.0530 H         1 SUB1        0.000
     61 H          -5.4600    0.2620   20.1470 H         1 SUB1        0.000
     62 H          -3.3620   -1.4910   18.7630 H         1 SUB1        0.000
     63 H          -5.0410   -1.2500   18.1720 H         1 SUB1        0.000
     64 H          -4.8750   -3.3060   19.5840 H         1 SUB1        0.000
     65 H          -5.9180   -2.0720   20.3670 H         1 SUB1        0.000
     66 H          -2.9430   -2.5570   20.9100 H         1 SUB1        0.000
     67 H          -4.3050   -2.9960   21.9960 H         1 SUB1        0.000
     68 H          -4.8450   -0.6310   22.3260 H         1 SUB1        0.000
     69 H          -3.1100   -0.9120   22.6970 H         1 SUB1        0.000
@<TRIPOS>BOND
     1   15   14 1  
     2   16   15 1  
     3   16   17 2  
     4    1    2 2  
     5    1    3 2  
     6    1    5 1  
     7   14    1 1  
     8    5    6 ar 
     9    6    7 ar 
    10    7   13 ar 
    11    8    9 ar 
    12   13    8 ar 
    13    9   10 ar 
    14   11   10 ar 
    15   12   11 ar 
    16   13   12 ar 
    17   19   18 1  
    18   18   28 2  
    19   18   32 am 
    20   19   20 1  
    21   29   19 1  
    22   20   21 1  
    23   21   22 ar 
    24   22   24 ar 
    25   21   23 ar 
    26   23   25 ar 
    27   24   26 ar 
    28   25   26 ar 
    29   26   27 1  
    30   27   30 ar 
    31   27   31 ar 
    32   29   16 am 
    33   32   33 1  
    34   32   37 1  
    35   33   34 1  
    36   34   35 1  
    37   35   36 1  
    38   36   37 1  
    39   12    4 ar 
    40    5    4 ar 
    41   14   38 1  
    42   15   39 1  
    43   15   40 1  
    44    4   41 1  
    45    6   42 1  
    46    7   43 1  
    47    8   44 1  
    48    9   45 1  
    49   10   46 1  
    50   11   47 1  
    51   19   48 1  
    52   20   49 1  
    53   20   50 1  
    54   22   51 1  
    55   23   52 1  
    56   24   53 1  
    57   25   54 1  
    58   29   55 1  
    59   30   56 1  
    60   30   57 1  
    61   31   58 1  
    62   31   59 1  
    63   33   60 1  
    64   33   61 1  
    65   34   62 1  
    66   34   63 1  
    67   35   64 1  
    68   35   65 1  
    69   36   66 1  
    70   36   67 1  
    71   37   68 1  
    72   37   69 1  
@<TRIPOS>SUBSTRUCTURE
     1 SUB1        1 GROUP

### 
### Created by X-TOOL on Tue Dec  2 13:04:55 2003
### 

@<TRIPOS>MOLECULE
1ppc-ligand.1ppc.038
   69    72     1     0     0
SMALL
MMFF94_CHARGES


@<TRIPOS>ATOM
      1 S          -1.8630    4.4000   20.4660 S.o2      1 SUB1        1.447
      2 O1         -1.6630    3.8930   19.0320 O.2       1 SUB1       -0.650
      3 O2         -2.6710    3.3810   21.2650 O.2       1 SUB1       -0.650
      4 C1         -2.2660    7.0140   19.5670 C.ar      1 SUB1       -0.150
      5 C2         -2.6880    5.9900   20.3750 C.ar      1 SUB1       -0.009
      6 C3         -3.7600    6.1910   21.1980 C.ar      1 SUB1       -0.150
      7 C4         -4.3680    7.4240   21.2550 C.ar      1 SUB1       -0.150
      8 C5         -4.5710    9.6630   20.5080 C.ar      1 SUB1       -0.150
      9 C6         -4.1640   10.6840   19.6690 C.ar      1 SUB1       -0.150
     10 C7         -3.0980   10.4920   18.8080 C.ar      1 SUB1       -0.150
     11 C8         -2.4320    9.2770   18.7730 C.ar      1 SUB1       -0.150
     12 C9         -2.8780    8.2500   19.5810 C.ar      1 SUB1        0.000
     13 C10        -3.9270    8.4450   20.4440 C.ar      1 SUB1        0.000
     14 N          -0.4170    4.4310   21.2800 N.am      1 SUB1       -0.914
     15 CA         -0.5400    4.8440   22.6580 C.3       1 SUB1        0.417
     16 C          -0.0410    3.8130   23.6630 C.2       1 SUB1        0.569
     17 O           0.6920    4.1130   24.6140 O.2       1 SUB1       -0.570
     18 C          -0.9880    1.4140   25.3360 C.2       1 SUB1        0.569
     19 CA         -0.1490    1.3510   24.0590 C.3       1 SUB1        0.361
     20 CB         -0.5080    0.0990   23.2440 C.3       1 SUB1        0.144
     21 CG          0.5240   -0.2420   22.1880 C.ar      1 SUB1       -0.144
     22 CD1         0.6140    0.5030   21.0260 C.ar      1 SUB1       -0.150
     23 CD2         1.4360   -1.2430   22.4270 C.ar      1 SUB1       -0.150
     24 CE1         1.5890    0.2250   20.0870 C.ar      1 SUB1       -0.150
     25 CE2         2.4040   -1.5190   21.4830 C.ar      1 SUB1       -0.150
     26 CZ          2.5100   -0.7790   20.3120 C.ar      1 SUB1       -0.022
     27 CF          3.5490   -1.0390   19.4070 C.cat     1 SUB1        0.731
     28 O          -0.4440    1.3970   26.4450 O.2       1 SUB1       -0.570
     29 N          -0.4120    2.5710   23.3090 N.am      1 SUB1       -0.730
     30 NG1         3.2960   -1.5900   18.2050 N.pl3     1 SUB1       -1.192
     31 NG2         4.7910   -0.6680   19.7430 N.pl3     1 SUB1       -1.192
     32 N1         -2.3240    1.5020   25.2330 N.am      1 SUB1       -0.660
     33 C2         -3.0090    1.7310   23.9710 C.3       1 SUB1        0.300
     34 C3         -3.9690    0.5830   23.7670 C.3       1 SUB1        0.000
     35 C4         -5.0160    0.6610   24.8660 C.3       1 SUB1        0.000
     36 C5         -4.2750    0.5310   26.1940 C.3       1 SUB1        0.000
     37 C6         -3.2070    1.5890   26.3870 C.3       1 SUB1        0.300
     38 H           0.4550    4.1860   20.8570 H         1 SUB1        0.420
     39 HA1         0.0400    5.7690   22.7940 H         1 SUB1        0.000
     40 HA2        -1.6010    5.0430   22.8660 H         1 SUB1        0.000
     41 H          -1.4290    6.8480   18.8990 H         1 SUB1        0.150
     42 H          -4.1330    5.3770   21.8080 H         1 SUB1        0.150
     43 H          -5.1930    7.5920   21.9390 H         1 SUB1        0.150
     44 H          -5.3860    9.8190   21.2060 H         1 SUB1        0.150
     45 H          -4.6810   11.6370   19.6850 H         1 SUB1        0.150
     46 H          -2.7810   11.2990   18.1570 H         1 SUB1        0.150
     47 H          -1.5770    9.1360   18.1220 H         1 SUB1        0.150
     48 H           0.9190    1.3080   24.3220 H         1 SUB1        0.000
     49 H          -1.4740    0.2710   22.7460 H         1 SUB1        0.000
     50 H          -0.5980   -0.7530   23.9330 H         1 SUB1        0.000
     51 H          -0.0870    1.3110   20.8500 H         1 SUB1        0.150
     52 H           1.3950   -1.8110   23.3500 H         1 SUB1        0.150
     53 H           1.6310    0.7990   19.1690 H         1 SUB1        0.150
     54 H           3.0980   -2.3320   21.6590 H         1 SUB1        0.150
     55 H          -0.9150    2.4750   22.4500 H         1 SUB1        0.370
     56 H           3.0010   -2.5740   18.1410 H         1 SUB1        0.669
     57 H           3.3980   -1.0260   17.3490 H         1 SUB1        0.669
     58 H           4.9360    0.0490   20.4680 H         1 SUB1        0.669
     59 H           5.6010   -1.0980   19.2750 H         1 SUB1        0.669
     60 H          -2.2800    1.7650   23.1470 H         1 SUB1        0.000
     61 H          -3.5610    2.6820   24.0100 H         1 SUB1        0.000
     62 H          -3.4280   -0.3730   23.8290 H         1 SUB1        0.000
     63 H          -4.4510    0.6680   22.7820 H         1 SUB1        0.000
     64 H          -5.7410   -0.1590   24.7570 H         1 SUB1        0.000
     65 H          -5.5430    1.6250   24.8200 H         1 SUB1        0.000
     66 H          -3.7970   -0.4580   26.2330 H         1 SUB1        0.000
     67 H          -5.0050    0.6180   27.0130 H         1 SUB1        0.000
     68 H          -3.6670    2.5870   26.4400 H         1 SUB1        0.000
     69 H          -2.6440    1.3950   27.3120 H         1 SUB1        0.000
@<TRIPOS>BOND
     1   15   14 1  
     2   16   15 1  
     3   16   17 2  
     4    1    2 2  
     5    1    3 2  
     6    1    5 1  
     7   14    1 1  
     8    5    6 ar 
     9    6    7 ar 
    10    7   13 ar 
    11    8    9 ar 
    12   13    8 ar 
    13    9   10 ar 
    14   11   10 ar 
    15   12   11 ar 
    16   13   12 ar 
    17   19   18 1  
    18   18   28 2  
    19   18   32 am 
    20   19   20 1  
    21   29   19 1  
    22   20   21 1  
    23   21   22 ar 
    24   22   24 ar 
    25   21   23 ar 
    26   23   25 ar 
    27   24   26 ar 
    28   25   26 ar 
    29   26   27 1  
    30   27   30 ar 
    31   27   31 ar 
    32   29   16 am 
    33   32   33 1  
    34   32   37 1  
    35   33   34 1  
    36   34   35 1  
    37   35   36 1  
    38   36   37 1  
    39   12    4 ar 
    40    5    4 ar 
    41   14   38 1  
    42   15   39 1  
    43   15   40 1  
    44    4   41 1  
    45    6   42 1  
    46    7   43 1  
    47    8   44 1  
    48    9   45 1  
    49   10   46 1  
    50   11   47 1  
    51   19   48 1  
    52   20   49 1  
    53   20   50 1  
    54   22   51 1  
    55   23   52 1  
    56   24   53 1  
    57   25   54 1  
    58   29   55 1  
    59   30   56 1  
    60   30   57 1  
    61   31   58 1  
    62   31   59 1  
    63   33   60 1  
    64   33   61 1  
    65   34   62 1  
    66   34   63 1  
    67   35   64 1  
    68   35   65 1  
    69   36   66 1  
    70   36   67 1  
    71   37   68 1  
    72   37   69 1  
@<TRIPOS>SUBSTRUCTURE
     1 SUB1        1 GROUP

### 
### Created by X-TOOL on Tue Dec  2 13:04:55 2003
### 

@<TRIPOS>MOLECULE
1ppc-ligand.1ppc.039
   69    72     1     0     0
SMALL
MMFF94_CHARGES


@<TRIPOS>ATOM
      1 S          -4.9610    4.3190   20.0910 S.o2      1 SUB1        1.447
      2 O1         -4.0400    3.1740   19.6500 O.2       1 SUB1       -0.650
      3 O2         -6.1430    4.4290   19.1320 O.2       1 SUB1       -0.650
      4 C1         -4.4570    7.0410   19.7160 C.ar      1 SUB1       -0.150
      5 C2         -3.9840    5.8230   20.1300 C.ar      1 SUB1       -0.009
      6 C3         -2.6870    5.7210   20.5490 C.ar      1 SUB1       -0.150
      7 C4         -1.8550    6.8160   20.4990 C.ar      1 SUB1       -0.150
      8 C5         -1.4900    9.1140   20.0550 C.ar      1 SUB1       -0.150
      9 C6         -1.9790   10.3480   19.6670 C.ar      1 SUB1       -0.150
     10 C7         -3.2950   10.4780   19.2650 C.ar      1 SUB1       -0.150
     11 C8         -4.1400    9.3790   19.2530 C.ar      1 SUB1       -0.150
     12 C9         -3.6530    8.1610   19.6860 C.ar      1 SUB1        0.000
     13 C10        -2.3430    8.0300   20.0730 C.ar      1 SUB1        0.000
     14 N          -5.7000    3.9520   21.5310 N.am      1 SUB1       -0.914
     15 CA         -6.6270    4.9630   21.9780 C.3       1 SUB1        0.417
     16 C          -8.0830    4.5120   21.9860 C.2       1 SUB1        0.569
     17 O          -8.7610    4.4720   23.0200 O.2       1 SUB1       -0.570
     18 C         -10.6580    4.8630   20.1780 C.2       1 SUB1        0.569
     19 CA         -9.7950    3.6210   20.4040 C.3       1 SUB1        0.361
     20 CB         -9.7630    2.7540   19.1350 C.3       1 SUB1        0.144
     21 CG         -9.3110    1.3310   19.3960 C.ar      1 SUB1       -0.144
     22 CD1        -8.1960    1.0790   20.1740 C.ar      1 SUB1       -0.150
     23 CD2       -10.0670    0.2820   18.9290 C.ar      1 SUB1       -0.150
     24 CE1        -7.8150   -0.2190   20.4560 C.ar      1 SUB1       -0.150
     25 CE2        -9.6780   -1.0130   19.2090 C.ar      1 SUB1       -0.150
     26 CZ         -8.5620   -1.2840   19.9920 C.ar      1 SUB1       -0.022
     27 CF         -8.2360   -2.6080   20.3160 C.cat     1 SUB1        0.731
     28 O         -10.5660    5.5070   19.1270 O.2       1 SUB1       -0.570
     29 N          -8.4630    4.0800   20.7710 N.am      1 SUB1       -0.730
     30 NG1        -6.9530   -2.9890   20.4560 N.pl3     1 SUB1       -1.192
     31 NG2        -9.2350   -3.4690   20.5480 N.pl3     1 SUB1       -1.192
     32 N1        -11.5270    5.2340   21.1320 N.am      1 SUB1       -0.660
     33 C2        -11.8300    4.4130   22.2920 C.3       1 SUB1        0.300
     34 C3        -11.5140    5.2360   23.5190 C.3       1 SUB1        0.000
     35 C4        -12.4760    6.4140   23.5390 C.3       1 SUB1        0.000
     36 C5        -12.2280    7.2100   22.2610 C.3       1 SUB1        0.000
     37 C6        -12.4060    6.3880   21.0020 C.3       1 SUB1        0.300
     38 H          -5.5190    3.1100   22.0400 H         1 SUB1        0.420
     39 HA1        -6.3510    5.2580   23.0010 H         1 SUB1        0.000
     40 HA2        -6.5390    5.8320   21.3100 H         1 SUB1        0.000
     41 H          -5.4920    7.1270   19.4030 H         1 SUB1        0.150
     42 H          -2.3130    4.7750   20.9230 H         1 SUB1        0.150
     43 H          -0.8160    6.7210   20.7950 H         1 SUB1        0.150
     44 H          -0.4500    9.0000   20.3400 H         1 SUB1        0.150
     45 H          -1.3280   11.2160   19.6780 H         1 SUB1        0.150
     46 H          -3.6700   11.4480   18.9580 H         1 SUB1        0.150
     47 H          -5.1630    9.4730   18.9080 H         1 SUB1        0.150
     48 H         -10.2160    3.0250   21.2280 H         1 SUB1        0.000
     49 H          -9.0700    3.2140   18.4150 H         1 SUB1        0.000
     50 H         -10.7740    2.7270   18.7040 H         1 SUB1        0.000
     51 H          -7.6150    1.9060   20.5660 H         1 SUB1        0.150
     52 H         -10.9620    0.4690   18.3460 H         1 SUB1        0.150
     53 H          -6.9230   -0.4030   21.0440 H         1 SUB1        0.150
     54 H         -10.2570   -1.8370   18.8100 H         1 SUB1        0.150
     55 H          -7.7670    4.0730   20.0530 H         1 SUB1        0.370
     56 H          -6.5720   -3.1850   21.3920 H         1 SUB1        0.669
     57 H          -6.3510   -3.0830   19.6250 H         1 SUB1        0.669
     58 H         -10.1140   -3.1370   20.9700 H         1 SUB1        0.669
     59 H          -9.1240   -4.4630   20.3030 H         1 SUB1        0.669
     60 H         -11.2120    3.5020   22.2800 H         1 SUB1        0.000
     61 H         -12.8940    4.1340   22.2880 H         1 SUB1        0.000
     62 H         -10.4770    5.5980   23.4710 H         1 SUB1        0.000
     63 H         -11.6490    4.6260   24.4240 H         1 SUB1        0.000
     64 H         -12.2840    7.0440   24.4200 H         1 SUB1        0.000
     65 H         -13.5150    6.0540   23.5650 H         1 SUB1        0.000
     66 H         -11.1990    7.5960   22.2840 H         1 SUB1        0.000
     67 H         -12.9350    8.0530   22.2310 H         1 SUB1        0.000
     68 H         -13.4520    6.0590   20.9070 H         1 SUB1        0.000
     69 H         -12.1270    6.9810   20.1180 H         1 SUB1        0.000
@<TRIPOS>BOND
     1   15   14 1  
     2   16   15 1  
     3   16   17 2  
     4    1    2 2  
     5    1    3 2  
     6    1    5 1  
     7   14    1 1  
     8    5    6 ar 
     9    6    7 ar 
    10    7   13 ar 
    11    8    9 ar 
    12   13    8 ar 
    13    9   10 ar 
    14   11   10 ar 
    15   12   11 ar 
    16   13   12 ar 
    17   19   18 1  
    18   18   28 2  
    19   18   32 am 
    20   19   20 1  
    21   29   19 1  
    22   20   21 1  
    23   21   22 ar 
    24   22   24 ar 
    25   21   23 ar 
    26   23   25 ar 
    27   24   26 ar 
    28   25   26 ar 
    29   26   27 1  
    30   27   30 ar 
    31   27   31 ar 
    32   29   16 am 
    33   32   33 1  
    34   32   37 1  
    35   33   34 1  
    36   34   35 1  
    37   35   36 1  
    38   36   37 1  
    39   12    4 ar 
    40    5    4 ar 
    41   14   38 1  
    42   15   39 1  
    43   15   40 1  
    44    4   41 1  
    45    6   42 1  
    46    7   43 1  
    47    8   44 1  
    48    9   45 1  
    49   10   46 1  
    50   11   47 1  
    51   19   48 1  
    52   20   49 1  
    53   20   50 1  
    54   22   51 1  
    55   23   52 1  
    56   24   53 1  
    57   25   54 1  
    58   29   55 1  
    59   30   56 1  
    60   30   57 1  
    61   31   58 1  
    62   31   59 1  
    63   33   60 1  
    64   33   61 1  
    65   34   62 1  
    66   34   63 1  
    67   35   64 1  
    68   35   65 1  
    69   36   66 1  
    70   36   67 1  
    71   37   68 1  
    72   37   69 1  
@<TRIPOS>SUBSTRUCTURE
     1 SUB1        1 GROUP

### 
### Created by X-TOOL on Tue Dec  2 13:04:55 2003
### 

@<TRIPOS>MOLECULE
1ppc-ligand.1ppc.040
   69    72     1     0     0
SMALL
MMFF94_CHARGES


@<TRIPOS>ATOM
      1 S          -3.7570    4.5890   20.7180 S.o2      1 SUB1        1.447
      2 O1         -2.8550    3.7500   21.6330 O.2       1 SUB1       -0.650
      3 O2         -3.9380    3.8780   19.3800 O.2       1 SUB1       -0.650
      4 C1         -3.6740    7.3110   20.0950 C.ar      1 SUB1       -0.150
      5 C2         -2.9950    6.2010   20.5260 C.ar      1 SUB1       -0.009
      6 C3         -1.6550    6.2980   20.7780 C.ar      1 SUB1       -0.150
      7 C4         -0.9900    7.4790   20.5450 C.ar      1 SUB1       -0.150
      8 C5         -0.9940    9.7590   19.9000 C.ar      1 SUB1       -0.150
      9 C6         -1.6880   10.8850   19.4960 C.ar      1 SUB1       -0.150
     10 C7         -3.0490   10.8150   19.2620 C.ar      1 SUB1       -0.150
     11 C8         -3.7320    9.6220   19.4350 C.ar      1 SUB1       -0.150
     12 C9         -3.0380    8.5160   19.8840 C.ar      1 SUB1        0.000
     13 C10        -1.6850    8.5820   20.1040 C.ar      1 SUB1        0.000
     14 N          -5.3060    4.6360   21.3110 N.am      1 SUB1       -0.914
     15 CA         -6.2250    5.3630   20.4680 C.3       1 SUB1        0.417
     16 C          -7.4800    4.5820   20.0980 C.2       1 SUB1        0.569
     17 O          -7.8010    4.3570   18.9240 O.2       1 SUB1       -0.570
     18 C         -10.5480    4.4070   20.6530 C.2       1 SUB1        0.569
     19 CA         -9.4410    3.5140   21.2140 C.3       1 SUB1        0.361
     20 CB         -9.3160    2.2290   20.3800 C.3       1 SUB1        0.144
     21 CG         -8.2100    1.3110   20.8600 C.ar      1 SUB1       -0.144
     22 CD1        -7.3160    0.7570   19.9620 C.ar      1 SUB1       -0.150
     23 CD2        -8.0400    1.0990   22.2080 C.ar      1 SUB1       -0.150
     24 CE1        -6.2760   -0.0380   20.4040 C.ar      1 SUB1       -0.150
     25 CE2        -7.0020    0.3000   22.6440 C.ar      1 SUB1       -0.150
     26 CZ         -6.0930   -0.2620   21.7550 C.ar      1 SUB1       -0.022
     27 CF         -5.0090   -1.0100   22.2360 C.cat     1 SUB1        0.731
     28 O         -10.6350    4.6080   19.4370 O.2       1 SUB1       -0.570
     29 N          -8.2070    4.2880   21.1890 N.am      1 SUB1       -0.730
     30 NG1        -4.0250   -0.4230   22.9420 N.pl3     1 SUB1       -1.192
     31 NG2        -5.0110   -2.3330   22.0330 N.pl3     1 SUB1       -1.192
     32 N1        -11.4320    4.9570   21.5010 N.am      1 SUB1       -0.660
     33 C2        -11.5100    4.6000   22.9080 C.3       1 SUB1        0.300
     34 C3        -11.3170    5.8690   23.7040 C.3       1 SUB1        0.000
     35 C4        -12.4970    6.7810   23.4060 C.3       1 SUB1        0.000
     36 C5        -12.4730    7.0600   21.9050 C.3       1 SUB1        0.000
     37 C6        -12.5340    5.8030   21.0630 C.3       1 SUB1        0.300
     38 H          -5.5770    4.2040   22.1710 H         1 SUB1        0.420
     39 HA1        -6.5300    6.2780   20.9970 H         1 SUB1        0.000
     40 HA2        -5.7010    5.6340   19.5400 H         1 SUB1        0.000
     41 H          -4.7400    7.2390   19.9150 H         1 SUB1        0.150
     42 H          -1.1140    5.4410   21.1640 H         1 SUB1        0.150
     43 H           0.0800    7.5410   20.7080 H         1 SUB1        0.150
     44 H           0.0780    9.8010   20.0550 H         1 SUB1        0.150
     45 H          -1.1640   11.8250   19.3620 H         1 SUB1        0.150
     46 H          -3.5850   11.7000   18.9400 H         1 SUB1        0.150
     47 H          -4.7930    9.5580   19.2210 H         1 SUB1        0.150
     48 H          -9.6790    3.2400   22.2530 H         1 SUB1        0.000
     49 H          -9.1100    2.5080   19.3370 H         1 SUB1        0.000
     50 H         -10.2700    1.6840   20.4320 H         1 SUB1        0.000
     51 H          -7.4330    0.9470   18.9000 H         1 SUB1        0.150
     52 H          -8.7150    1.5560   22.9230 H         1 SUB1        0.150
     53 H          -5.5990   -0.4880   19.6870 H         1 SUB1        0.150
     54 H          -6.8920    0.1060   23.7040 H         1 SUB1        0.150
     55 H          -7.8700    4.6320   22.0660 H         1 SUB1        0.370
     56 H          -4.2460    0.3380   23.6010 H         1 SUB1        0.669
     57 H          -3.0510   -0.7330   22.8230 H         1 SUB1        0.669
     58 H          -4.3140   -2.9270   22.5040 H         1 SUB1        0.669
     59 H          -5.7080   -2.7560   21.4050 H         1 SUB1        0.669
     60 H         -10.7200    3.8750   23.1570 H         1 SUB1        0.000
     61 H         -12.4940    4.1610   23.1310 H         1 SUB1        0.000
     62 H         -10.3790    6.3600   23.4050 H         1 SUB1        0.000
     63 H         -11.2840    5.6370   24.7780 H         1 SUB1        0.000
     64 H         -12.4000    7.7220   23.9670 H         1 SUB1        0.000
     65 H         -13.4380    6.2840   23.6820 H         1 SUB1        0.000
     66 H         -11.5450    7.5980   21.6650 H         1 SUB1        0.000
     67 H         -13.3380    7.6920   21.6530 H         1 SUB1        0.000
     68 H         -13.4930    5.2870   21.2180 H         1 SUB1        0.000
     69 H         -12.4210    6.0530   19.9980 H         1 SUB1        0.000
@<TRIPOS>BOND
     1   15   14 1  
     2   16   15 1  
     3   16   17 2  
     4    1    2 2  
     5    1    3 2  
     6    1    5 1  
     7   14    1 1  
     8    5    6 ar 
     9    6    7 ar 
    10    7   13 ar 
    11    8    9 ar 
    12   13    8 ar 
    13    9   10 ar 
    14   11   10 ar 
    15   12   11 ar 
    16   13   12 ar 
    17   19   18 1  
    18   18   28 2  
    19   18   32 am 
    20   19   20 1  
    21   29   19 1  
    22   20   21 1  
    23   21   22 ar 
    24   22   24 ar 
    25   21   23 ar 
    26   23   25 ar 
    27   24   26 ar 
    28   25   26 ar 
    29   26   27 1  
    30   27   30 ar 
    31   27   31 ar 
    32   29   16 am 
    33   32   33 1  
    34   32   37 1  
    35   33   34 1  
    36   34   35 1  
    37   35   36 1  
    38   36   37 1  
    39   12    4 ar 
    40    5    4 ar 
    41   14   38 1  
    42   15   39 1  
    43   15   40 1  
    44    4   41 1  
    45    6   42 1  
    46    7   43 1  
    47    8   44 1  
    48    9   45 1  
    49   10   46 1  
    50   11   47 1  
    51   19   48 1  
    52   20   49 1  
    53   20   50 1  
    54   22   51 1  
    55   23   52 1  
    56   24   53 1  
    57   25   54 1  
    58   29   55 1  
    59   30   56 1  
    60   30   57 1  
    61   31   58 1  
    62   31   59 1  
    63   33   60 1  
    64   33   61 1  
    65   34   62 1  
    66   34   63 1  
    67   35   64 1  
    68   35   65 1  
    69   36   66 1  
    70   36   67 1  
    71   37   68 1  
    72   37   69 1  
@<TRIPOS>SUBSTRUCTURE
     1 SUB1        1 GROUP

### 
### Created by X-TOOL on Tue Dec  2 13:04:55 2003
### 

@<TRIPOS>MOLECULE
1ppc-ligand.1ppc.041
   69    72     1     0     0
SMALL
MMFF94_CHARGES


@<TRIPOS>ATOM
      1 S          -1.2050    3.9750   20.8260 S.o2      1 SUB1        1.447
      2 O1         -0.4640    3.2620   19.6880 O.2       1 SUB1       -0.650
      3 O2         -2.3920    3.1290   21.2780 O.2       1 SUB1       -0.650
      4 C1         -0.9980    6.7330   20.4350 C.ar      1 SUB1       -0.150
      5 C2         -1.7160    5.5850   20.2240 C.ar      1 SUB1       -0.009
      6 C3         -2.9120    5.6600   19.5660 C.ar      1 SUB1       -0.150
      7 C4         -3.4120    6.8810   19.1750 C.ar      1 SUB1       -0.150
      8 C5         -3.2000    9.2320   18.9790 C.ar      1 SUB1       -0.150
      9 C6         -2.4590   10.3850   19.1650 C.ar      1 SUB1       -0.150
     10 C7         -1.2340   10.3260   19.8040 C.ar      1 SUB1       -0.150
     11 C8         -0.7340    9.1160   20.2580 C.ar      1 SUB1       -0.150
     12 C9         -1.4610    7.9660   20.0250 C.ar      1 SUB1        0.000
     13 C10        -2.6830    8.0250   19.4020 C.ar      1 SUB1        0.000
     14 N          -0.2620    4.0290   22.1910 N.am      1 SUB1       -0.914
     15 CA         -0.9200    4.6360   23.3230 C.3       1 SUB1        0.417
     16 C          -1.0470    3.7200   24.5350 C.2       1 SUB1        0.569
     17 O          -2.1230    3.5280   25.1140 O.2       1 SUB1       -0.570
     18 C           1.7400    1.6440   25.7280 C.2       1 SUB1        0.569
     19 CA          0.4070    2.3350   26.0170 C.3       1 SUB1        0.361
     20 CB          0.4610    3.0580   27.3720 C.3       1 SUB1        0.144
     21 CG         -0.4310    2.4270   28.4210 C.ar      1 SUB1       -0.144
     22 CD1         0.0400    2.2010   29.7020 C.ar      1 SUB1       -0.150
     23 CD2        -1.7470    2.1600   28.1240 C.ar      1 SUB1       -0.150
     24 CE1        -0.7900    1.6750   30.6740 C.ar      1 SUB1       -0.150
     25 CE2        -2.5700    1.6300   29.0970 C.ar      1 SUB1       -0.150
     26 CZ         -2.1130    1.4000   30.3890 C.ar      1 SUB1       -0.022
     27 CF         -2.9930    0.9270   31.3720 C.cat     1 SUB1        0.731
     28 O           2.8070    2.1920   26.0260 O.2       1 SUB1       -0.570
     29 N           0.1560    3.2650   24.9250 N.am      1 SUB1       -0.730
     30 NG1        -3.4370    1.7390   32.3500 N.pl3     1 SUB1       -1.192
     31 NG2        -3.4340   -0.3330   31.2770 N.pl3     1 SUB1       -1.192
     32 N1          1.7330    0.4270   25.1600 N.am      1 SUB1       -0.660
     33 C2          0.5220   -0.3540   24.9740 C.3       1 SUB1        0.300
     34 C3          0.4030   -0.6530   23.4980 C.3       1 SUB1        0.000
     35 C4          1.5750   -1.5430   23.1150 C.3       1 SUB1        0.000
     36 C5          2.8470   -0.7550   23.4190 C.3       1 SUB1        0.000
     37 C6          2.9480   -0.3210   24.8660 C.3       1 SUB1        0.300
     38 H           0.6720    3.6740   22.2260 H         1 SUB1        0.420
     39 HA1        -0.3460    5.5260   23.6200 H         1 SUB1        0.000
     40 HA2        -1.9310    4.9390   23.0130 H         1 SUB1        0.000
     41 H          -0.0400    6.6710   20.9380 H         1 SUB1        0.150
     42 H          -3.4680    4.7550   19.3510 H         1 SUB1        0.150
     43 H          -4.3800    6.9400   18.6890 H         1 SUB1        0.150
     44 H          -4.1750    9.2770   18.5070 H         1 SUB1        0.150
     45 H          -2.8390   11.3360   18.8090 H         1 SUB1        0.150
     46 H          -0.6610   11.2340   19.9510 H         1 SUB1        0.150
     47 H           0.2110    9.0740   20.7870 H         1 SUB1        0.150
     48 H          -0.3980    1.5840   26.0490 H         1 SUB1        0.000
     49 H           0.1450    4.1010   27.2240 H         1 SUB1        0.000
     50 H           1.4980    3.0380   27.7380 H         1 SUB1        0.000
     51 H           1.0700    2.4390   29.9460 H         1 SUB1        0.150
     52 H          -2.1360    2.3650   27.1320 H         1 SUB1        0.150
     53 H          -0.3990    1.4780   31.6650 H         1 SUB1        0.150
     54 H          -3.5960    1.3880   28.8480 H         1 SUB1        0.150
     55 H           0.9530    3.5960   24.4190 H         1 SUB1        0.370
     56 H          -3.2120    2.7440   32.3270 H         1 SUB1        0.669
     57 H          -4.0000    1.3560   33.1220 H         1 SUB1        0.669
     58 H          -3.4300   -0.8130   30.3650 H         1 SUB1        0.669
     59 H          -3.7760   -0.8240   32.1150 H         1 SUB1        0.669
     60 H          -0.3530    0.2200   25.3150 H         1 SUB1        0.000
     61 H           0.5880   -1.2930   25.5450 H         1 SUB1        0.000
     62 H           0.4380    0.2840   22.9230 H         1 SUB1        0.000
     63 H          -0.5450   -1.1720   23.2950 H         1 SUB1        0.000
     64 H           1.5300   -1.7880   22.0440 H         1 SUB1        0.000
     65 H           1.5550   -2.4700   23.7050 H         1 SUB1        0.000
     66 H           2.8630    0.1410   22.7820 H         1 SUB1        0.000
     67 H           3.7150   -1.3890   23.1830 H         1 SUB1        0.000
     68 H           3.0210   -1.2000   25.5230 H         1 SUB1        0.000
     69 H           3.8320    0.3180   25.0100 H         1 SUB1        0.000
@<TRIPOS>BOND
     1   15   14 1  
     2   16   15 1  
     3   16   17 2  
     4    1    2 2  
     5    1    3 2  
     6    1    5 1  
     7   14    1 1  
     8    5    6 ar 
     9    6    7 ar 
    10    7   13 ar 
    11    8    9 ar 
    12   13    8 ar 
    13    9   10 ar 
    14   11   10 ar 
    15   12   11 ar 
    16   13   12 ar 
    17   19   18 1  
    18   18   28 2  
    19   18   32 am 
    20   19   20 1  
    21   29   19 1  
    22   20   21 1  
    23   21   22 ar 
    24   22   24 ar 
    25   21   23 ar 
    26   23   25 ar 
    27   24   26 ar 
    28   25   26 ar 
    29   26   27 1  
    30   27   30 ar 
    31   27   31 ar 
    32   29   16 am 
    33   32   33 1  
    34   32   37 1  
    35   33   34 1  
    36   34   35 1  
    37   35   36 1  
    38   36   37 1  
    39   12    4 ar 
    40    5    4 ar 
    41   14   38 1  
    42   15   39 1  
    43   15   40 1  
    44    4   41 1  
    45    6   42 1  
    46    7   43 1  
    47    8   44 1  
    48    9   45 1  
    49   10   46 1  
    50   11   47 1  
    51   19   48 1  
    52   20   49 1  
    53   20   50 1  
    54   22   51 1  
    55   23   52 1  
    56   24   53 1  
    57   25   54 1  
    58   29   55 1  
    59   30   56 1  
    60   30   57 1  
    61   31   58 1  
    62   31   59 1  
    63   33   60 1  
    64   33   61 1  
    65   34   62 1  
    66   34   63 1  
    67   35   64 1  
    68   35   65 1  
    69   36   66 1  
    70   36   67 1  
    71   37   68 1  
    72   37   69 1  
@<TRIPOS>SUBSTRUCTURE
     1 SUB1        1 GROUP

### 
### Created by X-TOOL on Tue Dec  2 13:04:55 2003
### 

@<TRIPOS>MOLECULE
1ppc-ligand.1ppc.042
   69    72     1     0     0
SMALL
MMFF94_CHARGES


@<TRIPOS>ATOM
      1 S          -5.8350    4.3790   20.9760 S.o2      1 SUB1        1.447
      2 O1         -6.1390    3.5690   19.7080 O.2       1 SUB1       -0.650
      3 O2         -7.0930    5.1120   21.4330 O.2       1 SUB1       -0.650
      4 C1         -4.6930    6.8250   20.2570 C.ar      1 SUB1       -0.150
      5 C2         -4.4970    5.5110   20.5940 C.ar      1 SUB1       -0.009
      6 C3         -3.2260    5.0070   20.5950 C.ar      1 SUB1       -0.150
      7 C4         -2.1690    5.7960   20.2060 C.ar      1 SUB1       -0.150
      8 C5         -1.3000    7.8830   19.4960 C.ar      1 SUB1       -0.150
      9 C6         -1.4970    9.2160   19.1880 C.ar      1 SUB1       -0.150
     10 C7         -2.7710    9.7520   19.2080 C.ar      1 SUB1       -0.150
     11 C8         -3.8610    8.9640   19.5420 C.ar      1 SUB1       -0.150
     12 C9         -3.6470    7.6460   19.8940 C.ar      1 SUB1        0.000
     13 C10        -2.3830    7.1110   19.8610 C.ar      1 SUB1        0.000
     14 N          -5.5250    3.3670   22.2530 N.am      1 SUB1       -0.914
     15 CA         -5.2860    4.0620   23.4950 C.3       1 SUB1        0.417
     16 C          -4.2080    3.4290   24.3660 C.2       1 SUB1        0.569
     17 O          -3.8110    2.2700   24.1960 O.2       1 SUB1       -0.570
     18 C          -1.5330    4.6440   25.8640 C.2       1 SUB1        0.569
     19 CA         -2.8220    3.9900   26.3650 C.3       1 SUB1        0.361
     20 CB         -3.2090    4.5570   27.7400 C.3       1 SUB1        0.144
     21 CG         -2.6740    3.7380   28.8960 C.ar      1 SUB1       -0.144
     22 CD1        -1.5230    4.1250   29.5590 C.ar      1 SUB1       -0.150
     23 CD2        -3.3850    2.6510   29.3460 C.ar      1 SUB1       -0.150
     24 CE1        -1.0630    3.4070   30.6470 C.ar      1 SUB1       -0.150
     25 CE2        -2.9180    1.9350   30.4300 C.ar      1 SUB1       -0.150
     26 CZ         -1.7660    2.3120   31.1090 C.ar      1 SUB1       -0.022
     27 CF         -1.3590    1.6040   32.2490 C.cat     1 SUB1        0.731
     28 O          -1.2130    5.7730   26.2480 O.2       1 SUB1       -0.570
     29 N          -3.8530    4.2500   25.3700 N.am      1 SUB1       -0.730
     30 NG1        -1.0800    2.2480   33.3980 N.pl3     1 SUB1       -1.192
     31 NG2        -1.3170    0.2680   32.1860 N.pl3     1 SUB1       -1.192
     32 N1         -0.7480    3.9650   25.0110 N.am      1 SUB1       -0.660
     33 C2         -0.9590    2.5650   24.6820 C.3       1 SUB1        0.300
     34 C3         -1.1300    2.4770   23.1840 C.3       1 SUB1        0.000
     35 C4          0.1860    2.8950   22.5480 C.3       1 SUB1        0.000
     36 C5          0.4570    4.3300   22.9900 C.3       1 SUB1        0.000
     37 C6          0.5080    4.4910   24.4950 C.3       1 SUB1        0.300
     38 H          -5.5040    2.3700   22.1710 H         1 SUB1        0.420
     39 HA1        -4.9810    5.0930   23.2610 H         1 SUB1        0.000
     40 HA2        -6.2260    4.0790   24.0670 H         1 SUB1        0.000
     41 H          -5.6980    7.2300   20.2770 H         1 SUB1        0.150
     42 H          -3.0510    3.9830   20.9040 H         1 SUB1        0.150
     43 H          -1.1670    5.3820   20.1690 H         1 SUB1        0.150
     44 H          -0.3070    7.4500   19.4520 H         1 SUB1        0.150
     45 H          -0.6510    9.8430   18.9290 H         1 SUB1        0.150
     46 H          -2.9190   10.7970   18.9600 H         1 SUB1        0.150
     47 H          -4.8640    9.3750   19.5270 H         1 SUB1        0.150
     48 H          -2.6710    2.9040   26.4600 H         1 SUB1        0.000
     49 H          -4.3060    4.5860   27.8100 H         1 SUB1        0.000
     50 H          -2.8110    5.5790   27.8220 H         1 SUB1        0.000
     51 H          -0.9760    4.9990   29.2230 H         1 SUB1        0.150
     52 H          -4.3060    2.3580   28.8540 H         1 SUB1        0.150
     53 H          -0.1460    3.7060   31.1400 H         1 SUB1        0.150
     54 H          -3.4630    1.0580   30.7600 H         1 SUB1        0.150
     55 H          -4.3430    5.1190   25.4410 H         1 SUB1        0.370
     56 H          -0.2100    2.0390   33.9080 H         1 SUB1        0.669
     57 H          -1.7370    2.9500   33.7670 H         1 SUB1        0.669
     58 H          -1.2160   -0.2860   33.0480 H         1 SUB1        0.669
     59 H          -1.3860   -0.2060   31.2740 H         1 SUB1        0.669
     60 H          -1.8630    2.1910   25.1870 H         1 SUB1        0.000
     61 H          -0.0900    1.9690   24.9980 H         1 SUB1        0.000
     62 H          -1.9360    3.1520   22.8590 H         1 SUB1        0.000
     63 H          -1.3770    1.4460   22.8940 H         1 SUB1        0.000
     64 H           0.1100    2.8450   21.4520 H         1 SUB1        0.000
     65 H           0.9970    2.2350   22.8880 H         1 SUB1        0.000
     66 H          -0.3430    4.9740   22.5970 H         1 SUB1        0.000
     67 H           1.4230    4.6490   22.5720 H         1 SUB1        0.000
     68 H           1.3550    3.9250   24.9100 H         1 SUB1        0.000
     69 H           0.6120    5.5540   24.7600 H         1 SUB1        0.000
@<TRIPOS>BOND
     1   15   14 1  
     2   16   15 1  
     3   16   17 2  
     4    1    2 2  
     5    1    3 2  
     6    1    5 1  
     7   14    1 1  
     8    5    6 ar 
     9    6    7 ar 
    10    7   13 ar 
    11    8    9 ar 
    12   13    8 ar 
    13    9   10 ar 
    14   11   10 ar 
    15   12   11 ar 
    16   13   12 ar 
    17   19   18 1  
    18   18   28 2  
    19   18   32 am 
    20   19   20 1  
    21   29   19 1  
    22   20   21 1  
    23   21   22 ar 
    24   22   24 ar 
    25   21   23 ar 
    26   23   25 ar 
    27   24   26 ar 
    28   25   26 ar 
    29   26   27 1  
    30   27   30 ar 
    31   27   31 ar 
    32   29   16 am 
    33   32   33 1  
    34   32   37 1  
    35   33   34 1  
    36   34   35 1  
    37   35   36 1  
    38   36   37 1  
    39   12    4 ar 
    40    5    4 ar 
    41   14   38 1  
    42   15   39 1  
    43   15   40 1  
    44    4   41 1  
    45    6   42 1  
    46    7   43 1  
    47    8   44 1  
    48    9   45 1  
    49   10   46 1  
    50   11   47 1  
    51   19   48 1  
    52   20   49 1  
    53   20   50 1  
    54   22   51 1  
    55   23   52 1  
    56   24   53 1  
    57   25   54 1  
    58   29   55 1  
    59   30   56 1  
    60   30   57 1  
    61   31   58 1  
    62   31   59 1  
    63   33   60 1  
    64   33   61 1  
    65   34   62 1  
    66   34   63 1  
    67   35   64 1  
    68   35   65 1  
    69   36   66 1  
    70   36   67 1  
    71   37   68 1  
    72   37   69 1  
@<TRIPOS>SUBSTRUCTURE
     1 SUB1        1 GROUP

### 
### Created by X-TOOL on Tue Dec  2 13:04:55 2003
### 

@<TRIPOS>MOLECULE
1ppc-ligand.1ppc.043
   69    72     1     0     0
SMALL
MMFF94_CHARGES


@<TRIPOS>ATOM
      1 S          -6.0200    4.1730   21.7590 S.o2      1 SUB1        1.447
      2 O1         -6.3140    3.1520   20.6530 O.2       1 SUB1       -0.650
      3 O2         -7.3060    4.8990   22.1450 O.2       1 SUB1       -0.650
      4 C1         -3.5660    4.8890   20.6330 C.ar      1 SUB1       -0.150
      5 C2         -4.7690    5.3020   21.1450 C.ar      1 SUB1       -0.009
      6 C3         -5.0240    6.6410   21.2480 C.ar      1 SUB1       -0.150
      7 C4         -4.0600    7.5580   20.8960 C.ar      1 SUB1       -0.150
      8 C5         -1.9170    8.0710   20.0270 C.ar      1 SUB1       -0.150
      9 C6         -0.7170    7.6530   19.4800 C.ar      1 SUB1       -0.150
     10 C7         -0.4520    6.3030   19.3420 C.ar      1 SUB1       -0.150
     11 C8         -1.3830    5.3570   19.7420 C.ar      1 SUB1       -0.150
     12 C9         -2.5960    5.7880   20.2420 C.ar      1 SUB1        0.000
     13 C10        -2.8540    7.1280   20.3910 C.ar      1 SUB1        0.000
     14 N          -5.6070    3.4020   23.1690 N.am      1 SUB1       -0.914
     15 CA         -5.3730    4.3030   24.2720 C.3       1 SUB1        0.417
     16 C          -4.3620    3.7910   25.2910 C.2       1 SUB1        0.569
     17 O          -4.4760    4.0030   26.5040 O.2       1 SUB1       -0.570
     18 C          -1.7930    1.3490   24.4980 C.2       1 SUB1        0.569
     19 CA         -2.1940    2.5560   25.3470 C.3       1 SUB1        0.361
     20 CB         -1.0060    3.5200   25.5000 C.3       1 SUB1        0.144
     21 CG         -1.0830    4.3680   26.7530 C.ar      1 SUB1       -0.144
     22 CD1        -1.6850    5.6130   26.7240 C.ar      1 SUB1       -0.150
     23 CD2        -0.6320    3.8580   27.9480 C.ar      1 SUB1       -0.150
     24 CE1        -1.8030    6.3640   27.8780 C.ar      1 SUB1       -0.150
     25 CE2        -0.7470    4.6160   29.0960 C.ar      1 SUB1       -0.150
     26 CZ         -1.3520    5.8670   29.0850 C.ar      1 SUB1       -0.022
     27 CF         -1.5170    6.5790   30.2810 C.cat     1 SUB1        0.731
     28 O          -1.8960    0.2040   24.9480 O.2       1 SUB1       -0.570
     29 N          -3.3200    3.1980   24.6830 N.am      1 SUB1       -0.730
     30 NG1        -0.7470    7.6470   30.5610 N.pl3     1 SUB1       -1.192
     31 NG2        -2.5020    6.2100   31.1090 N.pl3     1 SUB1       -1.192
     32 N1         -1.3420    1.5530   23.2490 N.am      1 SUB1       -0.660
     33 C2         -1.3890    2.8490   22.5900 C.3       1 SUB1        0.300
     34 C3          0.0250    3.2030   22.1970 C.3       1 SUB1        0.000
     35 C4          0.4800    2.1880   21.1590 C.3       1 SUB1        0.000
     36 C5          0.4190    0.8160   21.8260 C.3       1 SUB1        0.000
     37 C6         -0.9580    0.4700   22.3550 C.3       1 SUB1        0.300
     38 H          -5.5270    2.4080   23.2470 H         1 SUB1        0.420
     39 HA1        -5.0020    5.2560   23.8670 H         1 SUB1        0.000
     40 HA2        -6.3280    4.4720   24.7890 H         1 SUB1        0.000
     41 H          -3.3720    3.8280   20.5320 H         1 SUB1        0.150
     42 H          -5.9870    6.9810   21.6080 H         1 SUB1        0.150
     43 H          -4.2510    8.6190   21.0170 H         1 SUB1        0.150
     44 H          -2.1180    9.1280   20.1660 H         1 SUB1        0.150
     45 H           0.0160    8.3840   19.1600 H         1 SUB1        0.150
     46 H           0.4930    5.9820   18.9180 H         1 SUB1        0.150
     47 H          -1.1620    4.2990   19.6630 H         1 SUB1        0.150
     48 H          -2.5040    2.2160   26.3470 H         1 SUB1        0.000
     49 H          -0.9830    4.1880   24.6270 H         1 SUB1        0.000
     50 H          -0.0780    2.9300   25.5340 H         1 SUB1        0.000
     51 H          -2.0680    6.0030   25.7870 H         1 SUB1        0.150
     52 H          -0.1880    2.8700   27.9880 H         1 SUB1        0.150
     53 H          -2.2520    7.3490   27.8350 H         1 SUB1        0.150
     54 H          -0.3580    4.2250   30.0290 H         1 SUB1        0.150
     55 H          -3.3170    3.1980   23.6830 H         1 SUB1        0.370
     56 H          -1.1520    8.5940   30.5410 H         1 SUB1        0.669
     57 H           0.2480    7.5180   30.7930 H         1 SUB1        0.669
     58 H          -3.3510    6.7860   31.1890 H         1 SUB1        0.669
     59 H          -2.4100    5.3490   31.6660 H         1 SUB1        0.669
     60 H          -1.7900    3.6070   23.2790 H         1 SUB1        0.000
     61 H          -2.0270    2.7930   21.6960 H         1 SUB1        0.000
     62 H           0.6820    3.1600   23.0780 H         1 SUB1        0.000
     63 H           0.0530    4.2150   21.7680 H         1 SUB1        0.000
     64 H           1.5090    2.4070   20.8400 H         1 SUB1        0.000
     65 H          -0.1880    2.2130   20.2870 H         1 SUB1        0.000
     66 H           1.1290    0.8040   22.6650 H         1 SUB1        0.000
     67 H           0.7110    0.0550   21.0870 H         1 SUB1        0.000
     68 H          -1.6750    0.3900   21.5250 H         1 SUB1        0.000
     69 H          -0.9250   -0.4820   22.9040 H         1 SUB1        0.000
@<TRIPOS>BOND
     1   15   14 1  
     2   16   15 1  
     3   16   17 2  
     4    1    2 2  
     5    1    3 2  
     6    1    5 1  
     7   14    1 1  
     8    5    6 ar 
     9    6    7 ar 
    10    7   13 ar 
    11    8    9 ar 
    12   13    8 ar 
    13    9   10 ar 
    14   11   10 ar 
    15   12   11 ar 
    16   13   12 ar 
    17   19   18 1  
    18   18   28 2  
    19   18   32 am 
    20   19   20 1  
    21   29   19 1  
    22   20   21 1  
    23   21   22 ar 
    24   22   24 ar 
    25   21   23 ar 
    26   23   25 ar 
    27   24   26 ar 
    28   25   26 ar 
    29   26   27 1  
    30   27   30 ar 
    31   27   31 ar 
    32   29   16 am 
    33   32   33 1  
    34   32   37 1  
    35   33   34 1  
    36   34   35 1  
    37   35   36 1  
    38   36   37 1  
    39   12    4 ar 
    40    5    4 ar 
    41   14   38 1  
    42   15   39 1  
    43   15   40 1  
    44    4   41 1  
    45    6   42 1  
    46    7   43 1  
    47    8   44 1  
    48    9   45 1  
    49   10   46 1  
    50   11   47 1  
    51   19   48 1  
    52   20   49 1  
    53   20   50 1  
    54   22   51 1  
    55   23   52 1  
    56   24   53 1  
    57   25   54 1  
    58   29   55 1  
    59   30   56 1  
    60   30   57 1  
    61   31   58 1  
    62   31   59 1  
    63   33   60 1  
    64   33   61 1  
    65   34   62 1  
    66   34   63 1  
    67   35   64 1  
    68   35   65 1  
    69   36   66 1  
    70   36   67 1  
    71   37   68 1  
    72   37   69 1  
@<TRIPOS>SUBSTRUCTURE
     1 SUB1        1 GROUP

### 
### Created by X-TOOL on Tue Dec  2 13:04:55 2003
### 

@<TRIPOS>MOLECULE
1ppc-ligand.1ppc.044
   69    72     1     0     0
SMALL
MMFF94_CHARGES


@<TRIPOS>ATOM
      1 S          -5.1930    4.3140   20.5350 S.o2      1 SUB1        1.447
      2 O1         -6.5710    4.6240   19.9360 O.2       1 SUB1       -0.650
      3 O2         -5.3460    3.9040   21.9970 O.2       1 SUB1       -0.650
      4 C1         -4.6740    7.0090   20.0140 C.ar      1 SUB1       -0.150
      5 C2         -4.1730    5.7780   20.3500 C.ar      1 SUB1       -0.009
      6 C3         -2.8230    5.6290   20.5070 C.ar      1 SUB1       -0.150
      7 C4         -1.9780    6.6890   20.2710 C.ar      1 SUB1       -0.150
      8 C5         -1.6240    8.9650   19.7170 C.ar      1 SUB1       -0.150
      9 C6         -2.1340   10.2130   19.4100 C.ar      1 SUB1       -0.150
     10 C7         -3.4990   10.3910   19.2740 C.ar      1 SUB1       -0.150
     11 C8         -4.3680    9.3260   19.4500 C.ar      1 SUB1       -0.150
     12 C9         -3.8510    8.0950   19.8040 C.ar      1 SUB1        0.000
     13 C10        -2.4960    7.9160   19.9250 C.ar      1 SUB1        0.000
     14 N          -4.5510    2.9480   19.8450 N.am      1 SUB1       -0.914
     15 CA         -3.2770    2.5640   20.4040 C.3       1 SUB1        0.417
     16 C          -3.3540    2.0570   21.8390 C.2       1 SUB1        0.569
     17 O          -3.9720    1.0310   22.1500 O.2       1 SUB1       -0.570
     18 C          -3.9930    2.9480   24.7580 C.2       1 SUB1        0.569
     19 CA         -2.6170    2.7340   24.1250 C.3       1 SUB1        0.361
     20 CB         -2.0860    1.3320   24.4610 C.3       1 SUB1        0.144
     21 CG         -1.6850    1.1770   25.9140 C.ar      1 SUB1       -0.144
     22 CD1        -2.5890    0.7010   26.8460 C.ar      1 SUB1       -0.150
     23 CD2        -0.3860    1.4270   26.2910 C.ar      1 SUB1       -0.150
     24 CE1        -2.2080    0.5100   28.1610 C.ar      1 SUB1       -0.150
     25 CE2        -0.0130    1.2400   27.6070 C.ar      1 SUB1       -0.150
     26 CZ         -0.9080    0.7590   28.5550 C.ar      1 SUB1       -0.022
     27 CF         -0.4770    0.5130   29.8670 C.cat     1 SUB1        0.731
     28 O          -4.9380    2.2070   24.4670 O.2       1 SUB1       -0.570
     29 N          -2.7690    2.9180   22.6890 N.am      1 SUB1       -0.730
     30 NG1         0.2900    1.4050   30.5200 N.pl3     1 SUB1       -1.192
     31 NG2        -0.9010   -0.6010   30.4750 N.pl3     1 SUB1       -1.192
     32 N1         -4.1540    3.9430   25.6450 N.am      1 SUB1       -0.660
     33 C2         -3.0440    4.7150   26.1810 C.3       1 SUB1        0.300
     34 C3         -3.3110    6.1660   25.8590 C.3       1 SUB1        0.000
     35 C4         -4.5590    6.5830   26.6230 C.3       1 SUB1        0.000
     36 C5         -5.6960    5.6900   26.1340 C.3       1 SUB1        0.000
     37 C6         -5.4170    4.2130   26.3180 C.3       1 SUB1        0.300
     38 H          -5.0040    2.4400   19.1120 H         1 SUB1        0.420
     39 HA1        -2.8520    1.7650   19.7780 H         1 SUB1        0.000
     40 HA2        -2.6120    3.4390   20.3820 H         1 SUB1        0.000
     41 H          -5.7460    7.1320   19.9100 H         1 SUB1        0.150
     42 H          -2.4180    4.6730   20.8170 H         1 SUB1        0.150
     43 H          -0.9050    6.5570   20.3570 H         1 SUB1        0.150
     44 H          -0.5530    8.8130   19.7940 H         1 SUB1        0.150
     45 H          -1.4630   11.0540   19.2740 H         1 SUB1        0.150
     46 H          -3.8910   11.3710   19.0280 H         1 SUB1        0.150
     47 H          -5.4360    9.4570   19.3130 H         1 SUB1        0.150
     48 H          -1.9110    3.4830   24.5170 H         1 SUB1        0.000
     49 H          -1.2070    1.1310   23.8320 H         1 SUB1        0.000
     50 H          -2.8720    0.5970   24.2350 H         1 SUB1        0.000
     51 H          -3.6060    0.4760   26.5430 H         1 SUB1        0.150
     52 H           0.3390    1.7690   25.5610 H         1 SUB1        0.150
     53 H          -2.9340    0.1620   28.8860 H         1 SUB1        0.150
     54 H           1.0020    1.4720   27.9070 H         1 SUB1        0.150
     55 H          -2.4040    3.7640   22.2990 H         1 SUB1        0.370
     56 H           0.7490    2.1680   30.0010 H         1 SUB1        0.669
     57 H           0.4180    1.3260   31.5380 H         1 SUB1        0.669
     58 H          -0.6340   -0.7880   31.4520 H         1 SUB1        0.669
     59 H          -1.4950   -1.2720   29.9670 H         1 SUB1        0.669
     60 H          -2.1010    4.3930   25.7150 H         1 SUB1        0.000
     61 H          -2.9810    4.5760   27.2710 H         1 SUB1        0.000
     62 H          -3.4750    6.2870   24.7780 H         1 SUB1        0.000
     63 H          -2.4570    6.7840   26.1720 H         1 SUB1        0.000
     64 H          -4.7930    7.6380   26.4190 H         1 SUB1        0.000
     65 H          -4.4060    6.4430   27.7020 H         1 SUB1        0.000
     66 H          -5.8580    5.8850   25.0630 H         1 SUB1        0.000
     67 H          -6.6080    5.9460   26.6940 H         1 SUB1        0.000
     68 H          -5.3360    3.9720   27.3880 H         1 SUB1        0.000
     69 H          -6.2230    3.6150   25.8670 H         1 SUB1        0.000
@<TRIPOS>BOND
     1   15   14 1  
     2   16   15 1  
     3   16   17 2  
     4    1    2 2  
     5    1    3 2  
     6    1    5 1  
     7   14    1 1  
     8    5    6 ar 
     9    6    7 ar 
    10    7   13 ar 
    11    8    9 ar 
    12   13    8 ar 
    13    9   10 ar 
    14   11   10 ar 
    15   12   11 ar 
    16   13   12 ar 
    17   19   18 1  
    18   18   28 2  
    19   18   32 am 
    20   19   20 1  
    21   29   19 1  
    22   20   21 1  
    23   21   22 ar 
    24   22   24 ar 
    25   21   23 ar 
    26   23   25 ar 
    27   24   26 ar 
    28   25   26 ar 
    29   26   27 1  
    30   27   30 ar 
    31   27   31 ar 
    32   29   16 am 
    33   32   33 1  
    34   32   37 1  
    35   33   34 1  
    36   34   35 1  
    37   35   36 1  
    38   36   37 1  
    39   12    4 ar 
    40    5    4 ar 
    41   14   38 1  
    42   15   39 1  
    43   15   40 1  
    44    4   41 1  
    45    6   42 1  
    46    7   43 1  
    47    8   44 1  
    48    9   45 1  
    49   10   46 1  
    50   11   47 1  
    51   19   48 1  
    52   20   49 1  
    53   20   50 1  
    54   22   51 1  
    55   23   52 1  
    56   24   53 1  
    57   25   54 1  
    58   29   55 1  
    59   30   56 1  
    60   30   57 1  
    61   31   58 1  
    62   31   59 1  
    63   33   60 1  
    64   33   61 1  
    65   34   62 1  
    66   34   63 1  
    67   35   64 1  
    68   35   65 1  
    69   36   66 1  
    70   36   67 1  
    71   37   68 1  
    72   37   69 1  
@<TRIPOS>SUBSTRUCTURE
     1 SUB1        1 GROUP

### 
### Created by X-TOOL on Tue Dec  2 13:04:55 2003
### 

@<TRIPOS>MOLECULE
1ppc-ligand.1ppc.045
   69    72     1     0     0
SMALL
MMFF94_CHARGES


@<TRIPOS>ATOM
      1 S          -8.0040    3.6010   22.7150 S.o2      1 SUB1        1.447
      2 O1         -8.2920    2.7920   23.9860 O.2       1 SUB1       -0.650
      3 O2         -7.5510    5.0090   23.0920 O.2       1 SUB1       -0.650
      4 C1         -9.7470    2.7240   20.7160 C.ar      1 SUB1       -0.150
      5 C2         -9.5000    3.6180   21.7260 C.ar      1 SUB1       -0.009
      6 C3        -10.4060    4.6120   21.9710 C.ar      1 SUB1       -0.150
      7 C4        -11.5210    4.7440   21.1750 C.ar      1 SUB1       -0.150
      8 C5        -12.8880    3.9890   19.3930 C.ar      1 SUB1       -0.150
      9 C6        -13.1500    3.0670   18.3970 C.ar      1 SUB1       -0.150
     10 C7        -12.2600    2.0390   18.1510 C.ar      1 SUB1       -0.150
     11 C8        -11.1010    1.9160   18.9010 C.ar      1 SUB1       -0.150
     12 C9        -10.8730    2.8150   19.9240 C.ar      1 SUB1        0.000
     13 C10       -11.7500    3.8440   20.1600 C.ar      1 SUB1        0.000
     14 N          -6.6750    2.9960   21.9270 N.am      1 SUB1       -0.914
     15 CA         -6.3110    3.7470   20.7500 C.3       1 SUB1        0.417
     16 C          -4.8210    4.0490   20.6400 C.2       1 SUB1        0.569
     17 O          -4.1490    3.7320   19.6510 O.2       1 SUB1       -0.570
     18 C          -2.8490    6.4200   21.3640 C.2       1 SUB1        0.569
     19 CA         -2.9870    5.0420   22.0110 C.3       1 SUB1        0.361
     20 CB         -2.6690    5.1220   23.5130 C.3       1 SUB1        0.144
     21 CG         -1.5330    4.2120   23.9320 C.ar      1 SUB1       -0.144
     22 CD1        -1.7500    2.8590   24.1250 C.ar      1 SUB1       -0.150
     23 CD2        -0.2580    4.7180   24.0340 C.ar      1 SUB1       -0.150
     24 CE1        -0.7040    2.0190   24.4560 C.ar      1 SUB1       -0.150
     25 CE2         0.7820    3.8750   24.3700 C.ar      1 SUB1       -0.150
     26 CZ          0.5810    2.5130   24.5650 C.ar      1 SUB1       -0.022
     27 CF          1.6720    1.6740   24.8350 C.cat     1 SUB1        0.731
     28 O          -3.6530    7.3200   21.6300 O.2       1 SUB1       -0.570
     29 N          -4.3510    4.5880   21.7780 N.am      1 SUB1       -0.730
     30 NG1         2.0800    0.7610   23.9330 N.pl3     1 SUB1       -1.192
     31 NG2         2.3370    1.8470   25.9830 N.pl3     1 SUB1       -1.192
     32 N1         -1.8340    6.6410   20.5130 N.am      1 SUB1       -0.660
     33 C2         -0.7450    5.6980   20.3160 C.3       1 SUB1        0.300
     34 C3         -0.7160    5.3480   18.8470 C.3       1 SUB1        0.000
     35 C4         -0.3590    6.6130   18.0820 C.3       1 SUB1        0.000
     36 C5         -1.4500    7.6360   18.3840 C.3       1 SUB1        0.000
     37 C6         -1.6050    7.9240   19.8630 C.3       1 SUB1        0.300
     38 H          -6.1750    2.1880   22.2380 H         1 SUB1        0.420
     39 HA1        -6.6130    3.1690   19.8640 H         1 SUB1        0.000
     40 HA2        -6.8560    4.7020   20.7670 H         1 SUB1        0.000
     41 H          -9.0390    1.9240   20.5350 H         1 SUB1        0.150
     42 H         -10.2460    5.2970   22.7950 H         1 SUB1        0.150
     43 H         -12.2170    5.5570   21.3470 H         1 SUB1        0.150
     44 H         -13.5670    4.8160   19.5700 H         1 SUB1        0.150
     45 H         -14.0570    3.1510   17.8070 H         1 SUB1        0.150
     46 H         -12.4700    1.3230   17.3650 H         1 SUB1        0.150
     47 H         -10.3870    1.1290   18.6880 H         1 SUB1        0.150
     48 H          -2.2830    4.3400   21.5380 H         1 SUB1        0.000
     49 H          -3.5700    4.8390   24.0770 H         1 SUB1        0.000
     50 H          -2.3950    6.1590   23.7580 H         1 SUB1        0.000
     51 H          -2.7500    2.4540   24.0160 H         1 SUB1        0.150
     52 H          -0.0720    5.7700   23.8530 H         1 SUB1        0.150
     53 H          -0.8930    0.9670   24.6310 H         1 SUB1        0.150
     54 H           1.7790    4.2840   24.4850 H         1 SUB1        0.150
     55 H          -4.9980    4.6870   22.5350 H         1 SUB1        0.370
     56 H           1.4450    0.4630   23.1790 H         1 SUB1        0.669
     57 H           3.0260    0.3610   23.9980 H         1 SUB1        0.669
     58 H           2.7770    2.7550   26.1920 H         1 SUB1        0.669
     59 H           2.4080    1.0730   26.6580 H         1 SUB1        0.669
     60 H          -0.9180    4.7920   20.9160 H         1 SUB1        0.000
     61 H           0.2090    6.1580   20.6130 H         1 SUB1        0.000
     62 H          -1.7040    4.9820   18.5290 H         1 SUB1        0.000
     63 H           0.0400    4.5710   18.6610 H         1 SUB1        0.000
     64 H          -0.3250    6.4060   17.0020 H         1 SUB1        0.000
     65 H           0.6180    6.9930   18.4130 H         1 SUB1        0.000
     66 H          -2.4060    7.2520   18.0010 H         1 SUB1        0.000
     67 H          -1.2000    8.5770   17.8700 H         1 SUB1        0.000
     68 H          -0.6910    8.3910   20.2580 H         1 SUB1        0.000
     69 H          -2.4610    8.5930   20.0320 H         1 SUB1        0.000
@<TRIPOS>BOND
     1   15   14 1  
     2   16   15 1  
     3   16   17 2  
     4    1    2 2  
     5    1    3 2  
     6    1    5 1  
     7   14    1 1  
     8    5    6 ar 
     9    6    7 ar 
    10    7   13 ar 
    11    8    9 ar 
    12   13    8 ar 
    13    9   10 ar 
    14   11   10 ar 
    15   12   11 ar 
    16   13   12 ar 
    17   19   18 1  
    18   18   28 2  
    19   18   32 am 
    20   19   20 1  
    21   29   19 1  
    22   20   21 1  
    23   21   22 ar 
    24   22   24 ar 
    25   21   23 ar 
    26   23   25 ar 
    27   24   26 ar 
    28   25   26 ar 
    29   26   27 1  
    30   27   30 ar 
    31   27   31 ar 
    32   29   16 am 
    33   32   33 1  
    34   32   37 1  
    35   33   34 1  
    36   34   35 1  
    37   35   36 1  
    38   36   37 1  
    39   12    4 ar 
    40    5    4 ar 
    41   14   38 1  
    42   15   39 1  
    43   15   40 1  
    44    4   41 1  
    45    6   42 1  
    46    7   43 1  
    47    8   44 1  
    48    9   45 1  
    49   10   46 1  
    50   11   47 1  
    51   19   48 1  
    52   20   49 1  
    53   20   50 1  
    54   22   51 1  
    55   23   52 1  
    56   24   53 1  
    57   25   54 1  
    58   29   55 1  
    59   30   56 1  
    60   30   57 1  
    61   31   58 1  
    62   31   59 1  
    63   33   60 1  
    64   33   61 1  
    65   34   62 1  
    66   34   63 1  
    67   35   64 1  
    68   35   65 1  
    69   36   66 1  
    70   36   67 1  
    71   37   68 1  
    72   37   69 1  
@<TRIPOS>SUBSTRUCTURE
     1 SUB1        1 GROUP

### 
### Created by X-TOOL on Tue Dec  2 13:04:55 2003
### 

@<TRIPOS>MOLECULE
1ppc-ligand.1ppc.046
   69    72     1     0     0
SMALL
MMFF94_CHARGES


@<TRIPOS>ATOM
      1 S           1.4670   -0.1210   21.8690 S.o2      1 SUB1        1.447
      2 O1          2.7140    0.0710   22.7410 O.2       1 SUB1       -0.650
      3 O2          0.2650    0.5450   22.5330 O.2       1 SUB1       -0.650
      4 C1         -0.0140   -2.4800   21.6470 C.ar      1 SUB1       -0.150
      5 C2          1.2200   -1.8840   21.6470 C.ar      1 SUB1       -0.009
      6 C3          2.3360   -2.6650   21.5220 C.ar      1 SUB1       -0.150
      7 C4          2.2180   -4.0340   21.4580 C.ar      1 SUB1       -0.150
      8 C5          0.8850   -5.9920   21.3820 C.ar      1 SUB1       -0.150
      9 C6         -0.3620   -6.5870   21.3510 C.ar      1 SUB1       -0.150
     10 C7         -1.5040   -5.8120   21.4470 C.ar      1 SUB1       -0.150
     11 C8         -1.4110   -4.4350   21.5700 C.ar      1 SUB1       -0.150
     12 C9         -0.1610   -3.8470   21.5520 C.ar      1 SUB1        0.000
     13 C10         0.9720   -4.6180   21.4690 C.ar      1 SUB1        0.000
     14 N           1.6110    0.7280   20.4510 N.am      1 SUB1       -0.914
     15 CA          0.4450    0.6390   19.6050 C.3       1 SUB1        0.417
     16 C          -0.3660    1.9270   19.5240 C.2       1 SUB1        0.569
     17 O          -0.8430    2.3470   18.4630 O.2       1 SUB1       -0.570
     18 C          -1.2060    3.9010   22.5290 C.2       1 SUB1        0.569
     19 CA         -1.0990    3.7960   21.0070 C.3       1 SUB1        0.361
     20 CB         -0.3710    5.0220   20.4360 C.3       1 SUB1        0.144
     21 CG         -1.3030    6.1700   20.1050 C.ar      1 SUB1       -0.144
     22 CD1        -2.3970    6.4410   20.9070 C.ar      1 SUB1       -0.150
     23 CD2        -1.0090    7.0020   19.0510 C.ar      1 SUB1       -0.150
     24 CE1        -3.2180    7.5190   20.6360 C.ar      1 SUB1       -0.150
     25 CE2        -1.8360    8.0750   18.7820 C.ar      1 SUB1       -0.150
     26 CZ         -2.9370    8.3630   19.5790 C.ar      1 SUB1       -0.022
     27 CF         -3.7140    9.5010   19.3200 C.cat     1 SUB1        0.731
     28 O          -0.5300    4.7300   23.1480 O.2       1 SUB1       -0.570
     29 N          -0.3850    2.5630   20.7080 N.am      1 SUB1       -0.730
     30 NG1        -3.1870   10.7350   19.4270 N.pl3     1 SUB1       -1.192
     31 NG2        -4.9730    9.3280   18.9000 N.pl3     1 SUB1       -1.192
     32 N1         -2.0550    3.0900   23.1800 N.am      1 SUB1       -0.660
     33 C2         -3.0210    2.2420   22.4990 C.3       1 SUB1        0.300
     34 C3         -2.7490    0.8200   22.9280 C.3       1 SUB1        0.000
     35 C4         -3.0400    0.7260   24.4180 C.3       1 SUB1        0.000
     36 C5         -2.0980    1.7030   25.1150 C.3       1 SUB1        0.000
     37 C6         -2.2440    3.1280   24.6230 C.3       1 SUB1        0.300
     38 H           2.4270    1.2520   20.2060 H         1 SUB1        0.420
     39 HA1         0.7750    0.3740   18.5890 H         1 SUB1        0.000
     40 HA2        -0.2070   -0.1550   19.9970 H         1 SUB1        0.000
     41 H          -0.8990   -1.8590   21.7250 H         1 SUB1        0.150
     42 H           3.3150   -2.2040   21.4740 H         1 SUB1        0.150
     43 H           3.1070   -4.6530   21.4000 H         1 SUB1        0.150
     44 H           1.7840   -6.5970   21.3380 H         1 SUB1        0.150
     45 H          -0.4460   -7.6630   21.2500 H         1 SUB1        0.150
     46 H          -2.4780   -6.2860   21.4270 H         1 SUB1        0.150
     47 H          -2.3040   -3.8300   21.6780 H         1 SUB1        0.150
     48 H          -2.1080    3.7480   20.5700 H         1 SUB1        0.000
     49 H           0.1530    4.7210   19.5170 H         1 SUB1        0.000
     50 H           0.3630    5.3710   21.1780 H         1 SUB1        0.000
     51 H          -2.6130    5.8010   21.7560 H         1 SUB1        0.150
     52 H          -0.1350    6.8180   18.4360 H         1 SUB1        0.150
     53 H          -4.0870    7.7030   21.2560 H         1 SUB1        0.150
     54 H          -1.6200    8.7080   17.9290 H         1 SUB1        0.150
     55 H           0.1410    2.1510   21.4530 H         1 SUB1        0.370
     56 H          -2.8370   11.0680   20.3370 H         1 SUB1        0.669
     57 H          -3.1350   11.3460   18.6010 H         1 SUB1        0.669
     58 H          -5.2100    9.4740   17.9080 H         1 SUB1        0.669
     59 H          -5.7040    9.0480   19.5680 H         1 SUB1        0.669
     60 H          -2.9030    2.3370   21.4100 H         1 SUB1        0.000
     61 H          -4.0430    2.5330   22.7840 H         1 SUB1        0.000
     62 H          -1.6970    0.5640   22.7340 H         1 SUB1        0.000
     63 H          -3.4020    0.1290   22.3740 H         1 SUB1        0.000
     64 H          -2.8570   -0.2970   24.7760 H         1 SUB1        0.000
     65 H          -4.0860    1.0020   24.6170 H         1 SUB1        0.000
     66 H          -1.0630    1.3770   24.9390 H         1 SUB1        0.000
     67 H          -2.3090    1.6830   26.1950 H         1 SUB1        0.000
     68 H          -3.2460    3.5130   24.8650 H         1 SUB1        0.000
     69 H          -1.4830    3.7710   25.0890 H         1 SUB1        0.000
@<TRIPOS>BOND
     1   15   14 1  
     2   16   15 1  
     3   16   17 2  
     4    1    2 2  
     5    1    3 2  
     6    1    5 1  
     7   14    1 1  
     8    5    6 ar 
     9    6    7 ar 
    10    7   13 ar 
    11    8    9 ar 
    12   13    8 ar 
    13    9   10 ar 
    14   11   10 ar 
    15   12   11 ar 
    16   13   12 ar 
    17   19   18 1  
    18   18   28 2  
    19   18   32 am 
    20   19   20 1  
    21   29   19 1  
    22   20   21 1  
    23   21   22 ar 
    24   22   24 ar 
    25   21   23 ar 
    26   23   25 ar 
    27   24   26 ar 
    28   25   26 ar 
    29   26   27 1  
    30   27   30 ar 
    31   27   31 ar 
    32   29   16 am 
    33   32   33 1  
    34   32   37 1  
    35   33   34 1  
    36   34   35 1  
    37   35   36 1  
    38   36   37 1  
    39   12    4 ar 
    40    5    4 ar 
    41   14   38 1  
    42   15   39 1  
    43   15   40 1  
    44    4   41 1  
    45    6   42 1  
    46    7   43 1  
    47    8   44 1  
    48    9   45 1  
    49   10   46 1  
    50   11   47 1  
    51   19   48 1  
    52   20   49 1  
    53   20   50 1  
    54   22   51 1  
    55   23   52 1  
    56   24   53 1  
    57   25   54 1  
    58   29   55 1  
    59   30   56 1  
    60   30   57 1  
    61   31   58 1  
    62   31   59 1  
    63   33   60 1  
    64   33   61 1  
    65   34   62 1  
    66   34   63 1  
    67   35   64 1  
    68   35   65 1  
    69   36   66 1  
    70   36   67 1  
    71   37   68 1  
    72   37   69 1  
@<TRIPOS>SUBSTRUCTURE
     1 SUB1        1 GROUP

### 
### Created by X-TOOL on Tue Dec  2 13:04:55 2003
### 

@<TRIPOS>MOLECULE
1ppc-ligand.1ppc.047
   69    72     1     0     0
SMALL
MMFF94_CHARGES


@<TRIPOS>ATOM
      1 S          -2.6140    4.4450   22.6840 S.o2      1 SUB1        1.447
      2 O1         -1.2280    3.8570   22.3900 O.2       1 SUB1       -0.650
      3 O2         -3.6810    3.3700   22.5000 O.2       1 SUB1       -0.650
      4 C1         -1.8870    6.7520   21.2850 C.ar      1 SUB1       -0.150
      5 C2         -2.8640    5.8370   21.5810 C.ar      1 SUB1       -0.009
      6 C3         -4.1150    6.0070   21.0550 C.ar      1 SUB1       -0.150
      7 C4         -4.3990    7.1140   20.2900 C.ar      1 SUB1       -0.150
      8 C5         -3.7200    9.1170   19.2210 C.ar      1 SUB1       -0.150
      9 C6         -2.7240   10.0200   18.8990 C.ar      1 SUB1       -0.150
     10 C7         -1.4450    9.8510   19.3980 C.ar      1 SUB1       -0.150
     11 C8         -1.1460    8.7740   20.2180 C.ar      1 SUB1       -0.150
     12 C9         -2.1370    7.8530   20.4940 C.ar      1 SUB1        0.000
     13 C10        -3.4090    8.0280   20.0100 C.ar      1 SUB1        0.000
     14 N          -2.7570    4.8210   24.2940 N.am      1 SUB1       -0.914
     15 CA         -4.0600    5.3270   24.6540 C.3       1 SUB1        0.417
     16 C          -4.3160    5.3760   26.1560 C.2       1 SUB1        0.569
     17 O          -5.4530    5.3200   26.6390 O.2       1 SUB1       -0.570
     18 C          -1.5680    5.3970   28.6120 C.2       1 SUB1        0.569
     19 CA         -3.0400    5.6500   28.2830 C.3       1 SUB1        0.361
     20 CB         -3.4840    7.0140   28.8360 C.3       1 SUB1        0.144
     21 CG         -3.9560    6.9500   30.2740 C.ar      1 SUB1       -0.144
     22 CD1        -3.1020    7.2840   31.3100 C.ar      1 SUB1       -0.150
     23 CD2        -5.2690    6.6440   30.5470 C.ar      1 SUB1       -0.150
     24 CE1        -3.5470    7.2770   32.6180 C.ar      1 SUB1       -0.150
     25 CE2        -5.7060    6.6330   31.8560 C.ar      1 SUB1       -0.150
     26 CZ         -4.8620    6.9690   32.9080 C.ar      1 SUB1       -0.022
     27 CF         -5.3570    7.0170   34.2180 C.cat     1 SUB1        0.731
     28 O          -0.7100    6.2420   28.3350 O.2       1 SUB1       -0.570
     29 N          -3.1760    5.5910   26.8350 N.am      1 SUB1       -0.730
     30 NG1        -4.8190    6.2540   35.1880 N.pl3     1 SUB1       -1.192
     31 NG2        -6.3350    7.8870   34.4960 N.pl3     1 SUB1       -1.192
     32 N1         -1.2250    4.2500   29.2190 N.am      1 SUB1       -0.660
     33 C2         -2.2000    3.3130   29.7530 C.3       1 SUB1        0.300
     34 C3         -1.9570    1.9820   29.0810 C.3       1 SUB1        0.000
     35 C4         -0.5820    1.4950   29.5130 C.3       1 SUB1        0.000
     36 C5          0.4250    2.5420   29.0460 C.3       1 SUB1        0.000
     37 C6          0.1450    3.9260   29.5930 C.3       1 SUB1        0.300
     38 H          -2.0130    4.7080   24.9520 H         1 SUB1        0.420
     39 HA1        -4.1570    6.3480   24.2540 H         1 SUB1        0.000
     40 HA2        -4.8210    4.6800   24.1950 H         1 SUB1        0.000
     41 H          -0.8900    6.6050   21.6840 H         1 SUB1        0.150
     42 H          -4.8840    5.2680   21.2430 H         1 SUB1        0.150
     43 H          -5.4030    7.2670   19.9080 H         1 SUB1        0.150
     44 H          -4.7310    9.2620   18.8590 H         1 SUB1        0.150
     45 H          -2.9460   10.8640   18.2550 H         1 SUB1        0.150
     46 H          -0.6710   10.5660   19.1450 H         1 SUB1        0.150
     47 H          -0.1520    8.6580   20.6350 H         1 SUB1        0.150
     48 H          -3.6600    4.8640   28.7400 H         1 SUB1        0.000
     49 H          -4.3090    7.3910   28.2140 H         1 SUB1        0.000
     50 H          -2.6340    7.7090   28.7770 H         1 SUB1        0.000
     51 H          -2.0740    7.5540   31.0940 H         1 SUB1        0.150
     52 H          -5.9550    6.4130   29.7400 H         1 SUB1        0.150
     53 H          -2.8600    7.5150   33.4220 H         1 SUB1        0.150
     54 H          -6.7320    6.3560   32.0690 H         1 SUB1        0.150
     55 H          -2.3440    5.7240   26.2950 H         1 SUB1        0.370
     56 H          -4.0300    5.6290   34.9730 H         1 SUB1        0.669
     57 H          -5.1960    6.2960   36.1450 H         1 SUB1        0.669
     58 H          -6.1220    8.7570   35.0060 H         1 SUB1        0.669
     59 H          -7.3010    7.6880   34.2000 H         1 SUB1        0.669
     60 H          -3.2190    3.6650   29.5360 H         1 SUB1        0.000
     61 H          -2.0710    3.2150   30.8420 H         1 SUB1        0.000
     62 H          -1.9870    2.1030   27.9880 H         1 SUB1        0.000
     63 H          -2.7250    1.2590   29.3920 H         1 SUB1        0.000
     64 H          -0.3610    0.5230   29.0470 H         1 SUB1        0.000
     65 H          -0.5430    1.3940   30.6070 H         1 SUB1        0.000
     66 H           0.3970    2.5880   27.9470 H         1 SUB1        0.000
     67 H           1.4290    2.2330   29.3750 H         1 SUB1        0.000
     68 H           0.2510    3.9300   30.6880 H         1 SUB1        0.000
     69 H           0.8410    4.6560   29.1540 H         1 SUB1        0.000
@<TRIPOS>BOND
     1   15   14 1  
     2   16   15 1  
     3   16   17 2  
     4    1    2 2  
     5    1    3 2  
     6    1    5 1  
     7   14    1 1  
     8    5    6 ar 
     9    6    7 ar 
    10    7   13 ar 
    11    8    9 ar 
    12   13    8 ar 
    13    9   10 ar 
    14   11   10 ar 
    15   12   11 ar 
    16   13   12 ar 
    17   19   18 1  
    18   18   28 2  
    19   18   32 am 
    20   19   20 1  
    21   29   19 1  
    22   20   21 1  
    23   21   22 ar 
    24   22   24 ar 
    25   21   23 ar 
    26   23   25 ar 
    27   24   26 ar 
    28   25   26 ar 
    29   26   27 1  
    30   27   30 ar 
    31   27   31 ar 
    32   29   16 am 
    33   32   33 1  
    34   32   37 1  
    35   33   34 1  
    36   34   35 1  
    37   35   36 1  
    38   36   37 1  
    39   12    4 ar 
    40    5    4 ar 
    41   14   38 1  
    42   15   39 1  
    43   15   40 1  
    44    4   41 1  
    45    6   42 1  
    46    7   43 1  
    47    8   44 1  
    48    9   45 1  
    49   10   46 1  
    50   11   47 1  
    51   19   48 1  
    52   20   49 1  
    53   20   50 1  
    54   22   51 1  
    55   23   52 1  
    56   24   53 1  
    57   25   54 1  
    58   29   55 1  
    59   30   56 1  
    60   30   57 1  
    61   31   58 1  
    62   31   59 1  
    63   33   60 1  
    64   33   61 1  
    65   34   62 1  
    66   34   63 1  
    67   35   64 1  
    68   35   65 1  
    69   36   66 1  
    70   36   67 1  
    71   37   68 1  
    72   37   69 1  
@<TRIPOS>SUBSTRUCTURE
     1 SUB1        1 GROUP

### 
### Created by X-TOOL on Tue Dec  2 13:04:55 2003
### 

@<TRIPOS>MOLECULE
1ppc-ligand.1ppc.048
   69    72     1     0     0
SMALL
MMFF94_CHARGES


@<TRIPOS>ATOM
      1 S          -4.6990    4.2380   21.3290 S.o2      1 SUB1        1.447
      2 O1         -6.1860    4.5780   21.4930 O.2       1 SUB1       -0.650
      3 O2         -4.1440    3.7010   22.6450 O.2       1 SUB1       -0.650
      4 C1         -4.4620    6.9530   20.7130 C.ar      1 SUB1       -0.150
      5 C2         -3.8520    5.7280   20.8000 C.ar      1 SUB1       -0.009
      6 C3         -2.5440    5.6080   20.4200 C.ar      1 SUB1       -0.150
      7 C4         -1.8720    6.6910   19.9020 C.ar      1 SUB1       -0.150
      8 C5         -1.7940    8.9840   19.3100 C.ar      1 SUB1       -0.150
      9 C6         -2.4020   10.2240   19.2530 C.ar      1 SUB1       -0.150
     10 C7         -3.7150   10.3730   19.6590 C.ar      1 SUB1       -0.150
     11 C8         -4.4330    9.2850   20.1310 C.ar      1 SUB1       -0.150
     12 C9         -3.8010    8.0610   20.2280 C.ar      1 SUB1        0.000
     13 C10        -2.5010    7.9120   19.8130 C.ar      1 SUB1        0.000
     14 N          -4.5060    2.9470   20.3040 N.am      1 SUB1       -0.914
     15 CA         -3.1310    2.5360   20.1480 C.3       1 SUB1        0.417
     16 C          -2.8970    1.0480   20.3800 C.2       1 SUB1        0.569
     17 O          -3.2400    0.4750   21.4210 O.2       1 SUB1       -0.570
     18 C          -0.7100   -1.1730   20.2460 C.2       1 SUB1        0.569
     19 CA         -1.8270   -0.8980   19.2390 C.3       1 SUB1        0.361
     20 CB         -3.0270   -1.8200   19.5070 C.3       1 SUB1        0.144
     21 CG         -3.7370   -2.2590   18.2430 C.ar      1 SUB1       -0.144
     22 CD1        -3.6410   -3.5660   17.8000 C.ar      1 SUB1       -0.150
     23 CD2        -4.5550   -1.3740   17.5790 C.ar      1 SUB1       -0.150
     24 CE1        -4.3300   -3.9800   16.6760 C.ar      1 SUB1       -0.150
     25 CE2        -5.2370   -1.7920   16.4540 C.ar      1 SUB1       -0.150
     26 CZ         -5.1530   -3.1020   15.9980 C.ar      1 SUB1       -0.022
     27 CF         -5.9150   -3.5120   14.8940 C.cat     1 SUB1        0.731
     28 O          -0.9790   -1.4990   21.4070 O.2       1 SUB1       -0.570
     29 N          -2.1930    0.5060   19.3710 N.am      1 SUB1       -0.730
     30 NG1        -5.3380   -3.7120   13.6940 N.pl3     1 SUB1       -1.192
     31 NG2        -7.2170   -3.7600   15.0780 N.pl3     1 SUB1       -1.192
     32 N1          0.5670   -1.0680   19.8450 N.am      1 SUB1       -0.660
     33 C2          0.9500   -0.8910   18.4530 C.3       1 SUB1        0.300
     34 C3          1.7610    0.3800   18.3700 C.3       1 SUB1        0.000
     35 C4          3.0400    0.1600   19.1630 C.3       1 SUB1        0.000
     36 C5          2.6240   -0.1360   20.6010 C.3       1 SUB1        0.000
     37 C6          1.7010   -1.3310   20.7210 C.3       1 SUB1        0.300
     38 H          -5.2680    2.4980   19.8390 H         1 SUB1        0.420
     39 HA1        -2.8110    2.7810   19.1240 H         1 SUB1        0.000
     40 HA2        -2.5180    3.0980   20.8680 H         1 SUB1        0.000
     41 H          -5.4920    7.0530   21.0340 H         1 SUB1        0.150
     42 H          -2.0360    4.6570   20.5260 H         1 SUB1        0.150
     43 H          -0.8470    6.5820   19.5640 H         1 SUB1        0.150
     44 H          -0.7740    8.8560   18.9630 H         1 SUB1        0.150
     45 H          -1.8480   11.0830   18.8890 H         1 SUB1        0.150
     46 H          -4.1870   11.3470   19.6070 H         1 SUB1        0.150
     47 H          -5.4720    9.3940   20.4200 H         1 SUB1        0.150
     48 H          -1.4590   -1.0850   18.2190 H         1 SUB1        0.000
     49 H          -3.7460   -1.2820   20.1430 H         1 SUB1        0.000
     50 H          -2.6690   -2.7150   20.0360 H         1 SUB1        0.000
     51 H          -3.0190   -4.2720   18.3390 H         1 SUB1        0.150
     52 H          -4.6630   -0.3570   17.9370 H         1 SUB1        0.150
     53 H          -4.2240   -5.0000   16.3250 H         1 SUB1        0.150
     54 H          -5.8520   -1.0820   15.9140 H         1 SUB1        0.150
     55 H          -1.8920    1.1230   18.6440 H         1 SUB1        0.370
     56 H          -5.9140   -3.7150   12.8400 H         1 SUB1        0.669
     57 H          -4.3220   -3.8630   13.6300 H         1 SUB1        0.669
     58 H          -7.8700   -3.7020   14.2840 H         1 SUB1        0.669
     59 H          -7.5660   -4.0100   16.0140 H         1 SUB1        0.669
     60 H           0.0520   -0.8080   17.8240 H         1 SUB1        0.000
     61 H           1.5540   -1.7470   18.1170 H         1 SUB1        0.000
     62 H           1.1920    1.2170   18.8000 H         1 SUB1        0.000
     63 H           2.0040    0.6020   17.3210 H         1 SUB1        0.000
     64 H           3.6660    1.0640   19.1300 H         1 SUB1        0.000
     65 H           3.6010   -0.6900   18.7490 H         1 SUB1        0.000
     66 H           2.1080    0.7470   21.0050 H         1 SUB1        0.000
     67 H           3.5300   -0.3340   21.1940 H         1 SUB1        0.000
     68 H           2.2210   -2.2470   20.4050 H         1 SUB1        0.000
     69 H           1.3590   -1.4440   21.7600 H         1 SUB1        0.000
@<TRIPOS>BOND
     1   15   14 1  
     2   16   15 1  
     3   16   17 2  
     4    1    2 2  
     5    1    3 2  
     6    1    5 1  
     7   14    1 1  
     8    5    6 ar 
     9    6    7 ar 
    10    7   13 ar 
    11    8    9 ar 
    12   13    8 ar 
    13    9   10 ar 
    14   11   10 ar 
    15   12   11 ar 
    16   13   12 ar 
    17   19   18 1  
    18   18   28 2  
    19   18   32 am 
    20   19   20 1  
    21   29   19 1  
    22   20   21 1  
    23   21   22 ar 
    24   22   24 ar 
    25   21   23 ar 
    26   23   25 ar 
    27   24   26 ar 
    28   25   26 ar 
    29   26   27 1  
    30   27   30 ar 
    31   27   31 ar 
    32   29   16 am 
    33   32   33 1  
    34   32   37 1  
    35   33   34 1  
    36   34   35 1  
    37   35   36 1  
    38   36   37 1  
    39   12    4 ar 
    40    5    4 ar 
    41   14   38 1  
    42   15   39 1  
    43   15   40 1  
    44    4   41 1  
    45    6   42 1  
    46    7   43 1  
    47    8   44 1  
    48    9   45 1  
    49   10   46 1  
    50   11   47 1  
    51   19   48 1  
    52   20   49 1  
    53   20   50 1  
    54   22   51 1  
    55   23   52 1  
    56   24   53 1  
    57   25   54 1  
    58   29   55 1  
    59   30   56 1  
    60   30   57 1  
    61   31   58 1  
    62   31   59 1  
    63   33   60 1  
    64   33   61 1  
    65   34   62 1  
    66   34   63 1  
    67   35   64 1  
    68   35   65 1  
    69   36   66 1  
    70   36   67 1  
    71   37   68 1  
    72   37   69 1  
@<TRIPOS>SUBSTRUCTURE
     1 SUB1        1 GROUP

### 
### Created by X-TOOL on Tue Dec  2 13:04:55 2003
### 

@<TRIPOS>MOLECULE
1ppc-ligand.1ppc.049
   69    72     1     0     0
SMALL
MMFF94_CHARGES


@<TRIPOS>ATOM
      1 S           4.8340   -4.2340   23.5900 S.o2      1 SUB1        1.447
      2 O1          4.8510   -5.7050   24.0240 O.2       1 SUB1       -0.650
      3 O2          5.1180   -4.1340   22.0940 O.2       1 SUB1       -0.650
      4 C1          6.0940   -3.3900   25.9370 C.ar      1 SUB1       -0.150
      5 C2          6.0600   -3.3610   24.5670 C.ar      1 SUB1       -0.009
      6 C3          6.9680   -2.5910   23.8950 C.ar      1 SUB1       -0.150
      7 C4          7.8630   -1.8110   24.5910 C.ar      1 SUB1       -0.150
      8 C5          8.8040   -1.0700   26.6350 C.ar      1 SUB1       -0.150
      9 C6          8.8560   -1.1260   28.0160 C.ar      1 SUB1       -0.150
     10 C7          7.9650   -1.9210   28.7130 C.ar      1 SUB1       -0.150
     11 C8          7.0150   -2.6720   28.0380 C.ar      1 SUB1       -0.150
     12 C9          7.0020   -2.6440   26.6570 C.ar      1 SUB1        0.000
     13 C10         7.8790   -1.8450   25.9660 C.ar      1 SUB1        0.000
     14 N           3.3010   -3.6090   23.7080 N.am      1 SUB1       -0.914
     15 CA          3.2000   -2.2410   23.2600 C.3       1 SUB1        0.417
     16 C           2.1060   -2.0040   22.2260 C.2       1 SUB1        0.569
     17 O           1.0130   -2.5820   22.2700 O.2       1 SUB1       -0.570
     18 C           1.5100    0.7790   20.3270 C.2       1 SUB1        0.569
     19 CA          1.7430   -0.7170   20.1180 C.3       1 SUB1        0.361
     20 CB          2.4590   -0.9650   18.7810 C.3       1 SUB1        0.144
     21 CG          1.5090   -1.3040   17.6500 C.ar      1 SUB1       -0.144
     22 CD1         1.0430   -0.3160   16.8020 C.ar      1 SUB1       -0.150
     23 CD2         1.1790   -2.6180   17.4100 C.ar      1 SUB1       -0.150
     24 CE1         0.2200   -0.6320   15.7390 C.ar      1 SUB1       -0.150
     25 CE2         0.3520   -2.9270   16.3490 C.ar      1 SUB1       -0.150
     26 CZ         -0.1220   -1.9460   15.4860 C.ar      1 SUB1       -0.022
     27 CF         -0.9030   -2.3030   14.3780 C.cat     1 SUB1        0.731
     28 O           2.1520    1.6110   19.6770 O.2       1 SUB1       -0.570
     29 N           2.5350   -1.1930   21.2440 N.am      1 SUB1       -0.730
     30 NG1        -0.3390   -2.4940   13.1700 N.pl3     1 SUB1       -1.192
     31 NG2        -2.2110   -2.5130   14.5640 N.pl3     1 SUB1       -1.192
     32 N1          0.5860    1.1760   21.2180 N.am      1 SUB1       -0.660
     33 C2         -0.3410    0.2590   21.8610 C.3       1 SUB1        0.300
     34 C3         -0.1450    0.3970   23.3520 C.3       1 SUB1        0.000
     35 C4         -0.5660    1.8060   23.7410 C.3       1 SUB1        0.000
     36 C5          0.3400    2.7660   22.9740 C.3       1 SUB1        0.000
     37 C6          0.2750    2.5760   21.4720 C.3       1 SUB1        0.300
     38 H           2.5230   -4.1310   24.0560 H         1 SUB1        0.420
     39 HA1         2.9940   -1.6060   24.1340 H         1 SUB1        0.000
     40 HA2         4.1640   -1.9510   22.8150 H         1 SUB1        0.000
     41 H           5.3880   -4.0170   26.4690 H         1 SUB1        0.150
     42 H           6.9820   -2.5940   22.8120 H         1 SUB1        0.150
     43 H           8.5560   -1.1710   24.0550 H         1 SUB1        0.150
     44 H           9.4800   -0.4240   26.0860 H         1 SUB1        0.150
     45 H           9.5990   -0.5460   28.5530 H         1 SUB1        0.150
     46 H           8.0090   -1.9560   29.7950 H         1 SUB1        0.150
     47 H           6.2950   -3.2700   28.5850 H         1 SUB1        0.150
     48 H           0.7760   -1.2420   20.1050 H         1 SUB1        0.000
     49 H           3.1620   -1.8010   18.9100 H         1 SUB1        0.000
     50 H           3.0160   -0.0570   18.5090 H         1 SUB1        0.000
     51 H           1.3260    0.7170   16.9730 H         1 SUB1        0.150
     52 H           1.5660   -3.4040   18.0480 H         1 SUB1        0.150
     53 H          -0.1600    0.1560   15.0990 H         1 SUB1        0.150
     54 H           0.0660   -3.9590   16.1850 H         1 SUB1        0.150
     55 H           3.4870   -0.8870   21.2900 H         1 SUB1        0.370
     56 H          -0.8660   -2.9720   12.4250 H         1 SUB1        0.669
     57 H           0.6180   -2.1620   12.9910 H         1 SUB1        0.669
     58 H          -2.5470   -3.4400   14.8640 H         1 SUB1        0.669
     59 H          -2.8830   -1.7490   14.4060 H         1 SUB1        0.669
     60 H          -0.1280   -0.7740   21.5470 H         1 SUB1        0.000
     61 H          -1.3750    0.5180   21.5900 H         1 SUB1        0.000
     62 H           0.9120    0.2360   23.6090 H         1 SUB1        0.000
     63 H          -0.7670   -0.3390   23.8820 H         1 SUB1        0.000
     64 H          -0.4410    1.9540   24.8230 H         1 SUB1        0.000
     65 H          -1.6160    1.9770   23.4660 H         1 SUB1        0.000
     66 H           1.3770    2.6050   23.3020 H         1 SUB1        0.000
     67 H           0.0360    3.7970   23.2090 H         1 SUB1        0.000
     68 H          -0.7330    2.8140   21.1020 H         1 SUB1        0.000
     69 H           1.0110    3.2250   20.9760 H         1 SUB1        0.000
@<TRIPOS>BOND
     1   15   14 1  
     2   16   15 1  
     3   16   17 2  
     4    1    2 2  
     5    1    3 2  
     6    1    5 1  
     7   14    1 1  
     8    5    6 ar 
     9    6    7 ar 
    10    7   13 ar 
    11    8    9 ar 
    12   13    8 ar 
    13    9   10 ar 
    14   11   10 ar 
    15   12   11 ar 
    16   13   12 ar 
    17   19   18 1  
    18   18   28 2  
    19   18   32 am 
    20   19   20 1  
    21   29   19 1  
    22   20   21 1  
    23   21   22 ar 
    24   22   24 ar 
    25   21   23 ar 
    26   23   25 ar 
    27   24   26 ar 
    28   25   26 ar 
    29   26   27 1  
    30   27   30 ar 
    31   27   31 ar 
    32   29   16 am 
    33   32   33 1  
    34   32   37 1  
    35   33   34 1  
    36   34   35 1  
    37   35   36 1  
    38   36   37 1  
    39   12    4 ar 
    40    5    4 ar 
    41   14   38 1  
    42   15   39 1  
    43   15   40 1  
    44    4   41 1  
    45    6   42 1  
    46    7   43 1  
    47    8   44 1  
    48    9   45 1  
    49   10   46 1  
    50   11   47 1  
    51   19   48 1  
    52   20   49 1  
    53   20   50 1  
    54   22   51 1  
    55   23   52 1  
    56   24   53 1  
    57   25   54 1  
    58   29   55 1  
    59   30   56 1  
    60   30   57 1  
    61   31   58 1  
    62   31   59 1  
    63   33   60 1  
    64   33   61 1  
    65   34   62 1  
    66   34   63 1  
    67   35   64 1  
    68   35   65 1  
    69   36   66 1  
    70   36   67 1  
    71   37   68 1  
    72   37   69 1  
@<TRIPOS>SUBSTRUCTURE
     1 SUB1        1 GROUP

### 
### Created by X-TOOL on Tue Dec  2 13:04:55 2003
### 

@<TRIPOS>MOLECULE
1ppc-ligand.1ppc.050
   69    72     1     0     0
SMALL
MMFF94_CHARGES


@<TRIPOS>ATOM
      1 S          -8.8570    3.5140   24.1840 S.o2      1 SUB1        1.447
      2 O1        -10.0350    4.1280   24.9520 O.2       1 SUB1       -0.650
      3 O2         -9.1540    2.0510   23.8670 O.2       1 SUB1       -0.650
      4 C1         -6.7670    2.6470   25.8230 C.ar      1 SUB1       -0.150
      5 C2         -7.3890    3.6970   25.1980 C.ar      1 SUB1       -0.009
      6 C3         -6.9080    4.9630   25.3880 C.ar      1 SUB1       -0.150
      7 C4         -5.8520    5.1810   26.2410 C.ar      1 SUB1       -0.150
      8 C5         -4.1730    4.3670   27.7010 C.ar      1 SUB1       -0.150
      9 C6         -3.5280    3.3030   28.3050 C.ar      1 SUB1       -0.150
     10 C7         -3.9810    2.0120   28.1040 C.ar      1 SUB1       -0.150
     11 C8         -5.0790    1.7700   27.2930 C.ar      1 SUB1       -0.150
     12 C9         -5.6860    2.8350   26.6580 C.ar      1 SUB1        0.000
     13 C10        -5.2440    4.1180   26.8680 C.ar      1 SUB1        0.000
     14 N          -8.7280    4.1900   22.6750 N.am      1 SUB1       -0.914
     15 CA         -7.6730    3.6170   21.8740 C.3       1 SUB1        0.417
     16 C          -6.3930    4.4440   21.8470 C.2       1 SUB1        0.569
     17 O          -6.3940    5.6750   21.9620 O.2       1 SUB1       -0.570
     18 C          -3.0610    2.9170   21.8700 C.2       1 SUB1        0.569
     19 CA         -3.9400    4.1190   21.5230 C.3       1 SUB1        0.361
     20 CB         -3.5790    4.6610   20.1300 C.3       1 SUB1        0.144
     21 CG         -3.6610    6.1710   20.0380 C.ar      1 SUB1       -0.144
     22 CD1        -2.8010    6.9680   20.7730 C.ar      1 SUB1       -0.150
     23 CD2        -4.5350    6.7530   19.1500 C.ar      1 SUB1       -0.150
     24 CE1        -2.8390    8.3440   20.6500 C.ar      1 SUB1       -0.150
     25 CE2        -4.5720    8.1280   19.0350 C.ar      1 SUB1       -0.150
     26 CZ         -3.7130    8.9420   19.7640 C.ar      1 SUB1       -0.022
     27 CF         -3.7290   10.3310   19.5700 C.cat     1 SUB1        0.731
     28 O          -3.3830    1.7800   21.5090 O.2       1 SUB1       -0.570
     29 N          -5.3250    3.6730   21.5800 N.am      1 SUB1       -0.730
     30 NG1        -4.4420   11.1330   20.3830 N.pl3     1 SUB1       -1.192
     31 NG2        -2.9660   10.8440   18.5980 N.pl3     1 SUB1       -1.192
     32 N1         -1.9260    3.1180   22.5590 N.am      1 SUB1       -0.660
     33 C2         -1.3890    4.4410   22.8340 C.3       1 SUB1        0.300
     34 C3         -1.2640    4.5710   24.3330 C.3       1 SUB1        0.000
     35 C4         -0.2270    3.5600   24.7970 C.3       1 SUB1        0.000
     36 C5         -0.7470    2.1800   24.4040 C.3       1 SUB1        0.000
     37 C6         -1.0120    2.0430   22.9190 C.3       1 SUB1        0.300
     38 H          -9.3250    4.9250   22.3510 H         1 SUB1        0.420
     39 HA1        -7.4340    2.6220   22.2780 H         1 SUB1        0.000
     40 HA2        -8.0390    3.5150   20.8420 H         1 SUB1        0.000
     41 H          -7.1350    1.6410   25.6560 H         1 SUB1        0.150
     42 H          -7.3610    5.7960   24.8640 H         1 SUB1        0.150
     43 H          -5.4990    6.1910   26.4200 H         1 SUB1        0.150
     44 H          -3.8410    5.3830   27.8800 H         1 SUB1        0.150
     45 H          -2.6650    3.4810   28.9370 H         1 SUB1        0.150
     46 H          -3.4740    1.1830   28.5840 H         1 SUB1        0.150
     47 H          -5.4550    0.7610   27.1600 H         1 SUB1        0.150
     48 H          -3.7830    4.9170   22.2640 H         1 SUB1        0.000
     49 H          -4.2740    4.2280   19.3960 H         1 SUB1        0.000
     50 H          -2.5520    4.3510   19.8890 H         1 SUB1        0.000
     51 H          -2.0910    6.5090   21.4530 H         1 SUB1        0.150
     52 H          -5.1900    6.1360   18.5450 H         1 SUB1        0.150
     53 H          -2.1790    8.9560   21.2520 H         1 SUB1        0.150
     54 H          -5.2870    8.5830   18.3600 H         1 SUB1        0.150
     55 H          -5.4970    2.7040   21.4040 H         1 SUB1        0.370
     56 H          -4.1080   11.3270   21.3380 H         1 SUB1        0.669
     57 H          -5.3210   11.5520   20.0500 H         1 SUB1        0.669
     58 H          -3.1160   10.5580   17.6200 H         1 SUB1        0.669
     59 H          -2.2300   11.5260   18.8280 H         1 SUB1        0.669
     60 H          -2.0690    5.2120   22.4430 H         1 SUB1        0.000
     61 H          -0.4010    4.5510   22.3620 H         1 SUB1        0.000
     62 H          -2.2330    4.3610   24.8100 H         1 SUB1        0.000
     63 H          -0.9390    5.5890   24.5960 H         1 SUB1        0.000
     64 H          -0.1000    3.6200   25.8870 H         1 SUB1        0.000
     65 H           0.7370    3.7540   24.3050 H         1 SUB1        0.000
     66 H          -1.6860    1.9940   24.9450 H         1 SUB1        0.000
     67 H           0.0000    1.4280   24.6960 H         1 SUB1        0.000
     68 H          -0.0730    2.1390   22.3540 H         1 SUB1        0.000
     69 H          -1.4710    1.0670   22.7040 H         1 SUB1        0.000
@<TRIPOS>BOND
     1   15   14 1  
     2   16   15 1  
     3   16   17 2  
     4    1    2 2  
     5    1    3 2  
     6    1    5 1  
     7   14    1 1  
     8    5    6 ar 
     9    6    7 ar 
    10    7   13 ar 
    11    8    9 ar 
    12   13    8 ar 
    13    9   10 ar 
    14   11   10 ar 
    15   12   11 ar 
    16   13   12 ar 
    17   19   18 1  
    18   18   28 2  
    19   18   32 am 
    20   19   20 1  
    21   29   19 1  
    22   20   21 1  
    23   21   22 ar 
    24   22   24 ar 
    25   21   23 ar 
    26   23   25 ar 
    27   24   26 ar 
    28   25   26 ar 
    29   26   27 1  
    30   27   30 ar 
    31   27   31 ar 
    32   29   16 am 
    33   32   33 1  
    34   32   37 1  
    35   33   34 1  
    36   34   35 1  
    37   35   36 1  
    38   36   37 1  
    39   12    4 ar 
    40    5    4 ar 
    41   14   38 1  
    42   15   39 1  
    43   15   40 1  
    44    4   41 1  
    45    6   42 1  
    46    7   43 1  
    47    8   44 1  
    48    9   45 1  
    49   10   46 1  
    50   11   47 1  
    51   19   48 1  
    52   20   49 1  
    53   20   50 1  
    54   22   51 1  
    55   23   52 1  
    56   24   53 1  
    57   25   54 1  
    58   29   55 1  
    59   30   56 1  
    60   30   57 1  
    61   31   58 1  
    62   31   59 1  
    63   33   60 1  
    64   33   61 1  
    65   34   62 1  
    66   34   63 1  
    67   35   64 1  
    68   35   65 1  
    69   36   66 1  
    70   36   67 1  
    71   37   68 1  
    72   37   69 1  
@<TRIPOS>SUBSTRUCTURE
     1 SUB1        1 GROUP

### 
### Created by X-TOOL on Tue Dec  2 13:04:55 2003
### 

@<TRIPOS>MOLECULE
1ppc-ligand.1ppc.051
   69    72     1     0     0
SMALL
MMFF94_CHARGES


@<TRIPOS>ATOM
      1 S          -7.7950    4.2330   25.0300 S.o2      1 SUB1        1.447
      2 O1         -7.7290    5.0240   26.3420 O.2       1 SUB1       -0.650
      3 O2         -9.2370    4.1800   24.5320 O.2       1 SUB1       -0.650
      4 C1         -7.9080    1.4690   25.4250 C.ar      1 SUB1       -0.150
      5 C2         -7.1320    2.5960   25.3430 C.ar      1 SUB1       -0.009
      6 C3         -5.7860    2.4930   25.5600 C.ar      1 SUB1       -0.150
      7 C4         -5.2320    1.2840   25.9120 C.ar      1 SUB1       -0.150
      8 C5         -5.4380   -1.0380   26.3340 C.ar      1 SUB1       -0.150
      9 C6         -6.2190   -2.1780   26.3840 C.ar      1 SUB1       -0.150
     10 C7         -7.5780   -2.1000   26.1420 C.ar      1 SUB1       -0.150
     11 C8         -8.1700   -0.8840   25.8400 C.ar      1 SUB1       -0.150
     12 C9         -7.3730    0.2400   25.7460 C.ar      1 SUB1        0.000
     13 C10        -6.0260    0.1640   25.9990 C.ar      1 SUB1        0.000
     14 N          -7.0250    5.0560   23.8120 N.am      1 SUB1       -0.914
     15 CA         -7.0990    4.3940   22.5320 C.3       1 SUB1        0.417
     16 C          -5.9740    4.7640   21.5740 C.2       1 SUB1        0.569
     17 O          -6.1530    5.4810   20.5820 O.2       1 SUB1       -0.570
     18 C          -2.8780    2.9070   21.2160 C.2       1 SUB1        0.569
     19 CA         -3.5490    4.2800   21.2270 C.3       1 SUB1        0.361
     20 CB         -3.7210    4.8040   19.7920 C.3       1 SUB1        0.144
     21 CG         -3.3680    6.2700   19.6460 C.ar      1 SUB1       -0.144
     22 CD1        -4.3260    7.1880   19.2520 C.ar      1 SUB1       -0.150
     23 CD2        -2.1110    6.7060   19.9940 C.ar      1 SUB1       -0.150
     24 CE1        -4.0190    8.5330   19.1700 C.ar      1 SUB1       -0.150
     25 CE2        -1.8090    8.0500   19.9040 C.ar      1 SUB1       -0.150
     26 CZ         -2.7600    8.9850   19.5130 C.ar      1 SUB1       -0.022
     27 CF         -2.4400   10.3500   19.5010 C.cat     1 SUB1        0.731
     28 O          -3.0640    2.1260   20.2760 O.2       1 SUB1       -0.570
     29 N          -4.8340    4.1290   21.8970 N.am      1 SUB1       -0.730
     30 NG1        -1.5800   10.8650   20.4000 N.pl3     1 SUB1       -1.192
     31 NG2        -2.9600   11.1150   18.5350 N.pl3     1 SUB1       -1.192
     32 N1         -2.0720    2.5680   22.2350 N.am      1 SUB1       -0.660
     33 C2         -1.6520    3.5090   23.2600 C.3       1 SUB1        0.300
     34 C3         -2.0830    2.9430   24.5920 C.3       1 SUB1        0.000
     35 C4         -1.3040    1.6560   24.8170 C.3       1 SUB1        0.000
     36 C5         -1.6670    0.7130   23.6730 C.3       1 SUB1        0.000
     37 C6         -1.3710    1.2930   22.3050 C.3       1 SUB1        0.300
     38 H          -6.5550    5.9270   23.9520 H         1 SUB1        0.420
     39 HA1        -7.0650    3.3070   22.7020 H         1 SUB1        0.000
     40 HA2        -8.0560    4.6610   22.0600 H         1 SUB1        0.000
     41 H          -8.9720    1.5470   25.2330 H         1 SUB1        0.150
     42 H          -5.1530    3.3660   25.4530 H         1 SUB1        0.150
     43 H          -4.1700    1.2140   26.1220 H         1 SUB1        0.150
     44 H          -4.3780   -1.0890   26.5540 H         1 SUB1        0.150
     45 H          -5.7650   -3.1360   26.6150 H         1 SUB1        0.150
     46 H          -8.1840   -2.9970   26.1880 H         1 SUB1        0.150
     47 H          -9.2410   -0.8170   25.6800 H         1 SUB1        0.150
     48 H          -2.9260    4.9910   21.7900 H         1 SUB1        0.000
     49 H          -4.7690    4.6650   19.4920 H         1 SUB1        0.000
     50 H          -3.0680    4.2200   19.1260 H         1 SUB1        0.000
     51 H          -5.3260    6.8490   19.0050 H         1 SUB1        0.150
     52 H          -1.3630    5.9990   20.3360 H         1 SUB1        0.150
     53 H          -4.7710    9.2370   18.8330 H         1 SUB1        0.150
     54 H          -0.8070    8.3840   20.1450 H         1 SUB1        0.150
     55 H          -4.8710    3.4930   22.6670 H         1 SUB1        0.370
     56 H          -1.8940   11.0570   21.3620 H         1 SUB1        0.669
     57 H          -0.6080   11.0660   20.1260 H         1 SUB1        0.669
     58 H          -3.4480   11.9900   18.7760 H         1 SUB1        0.669
     59 H          -2.8730   10.8300   17.5490 H         1 SUB1        0.669
     60 H          -2.1290    4.4860   23.0930 H         1 SUB1        0.000
     61 H          -0.5580    3.6270   23.2370 H         1 SUB1        0.000
     62 H          -3.1620    2.7310   24.5780 H         1 SUB1        0.000
     63 H          -1.8600    3.6610   25.3950 H         1 SUB1        0.000
     64 H          -1.5860    1.2060   25.7800 H         1 SUB1        0.000
     65 H          -0.2240    1.8610   24.8100 H         1 SUB1        0.000
     66 H          -2.7420    0.4890   23.7320 H         1 SUB1        0.000
     67 H          -1.0910   -0.2170   23.7890 H         1 SUB1        0.000
     68 H          -0.2890    1.4480   22.1840 H         1 SUB1        0.000
     69 H          -1.7350    0.6160   21.5190 H         1 SUB1        0.000
@<TRIPOS>BOND
     1   15   14 1  
     2   16   15 1  
     3   16   17 2  
     4    1    2 2  
     5    1    3 2  
     6    1    5 1  
     7   14    1 1  
     8    5    6 ar 
     9    6    7 ar 
    10    7   13 ar 
    11    8    9 ar 
    12   13    8 ar 
    13    9   10 ar 
    14   11   10 ar 
    15   12   11 ar 
    16   13   12 ar 
    17   19   18 1  
    18   18   28 2  
    19   18   32 am 
    20   19   20 1  
    21   29   19 1  
    22   20   21 1  
    23   21   22 ar 
    24   22   24 ar 
    25   21   23 ar 
    26   23   25 ar 
    27   24   26 ar 
    28   25   26 ar 
    29   26   27 1  
    30   27   30 ar 
    31   27   31 ar 
    32   29   16 am 
    33   32   33 1  
    34   32   37 1  
    35   33   34 1  
    36   34   35 1  
    37   35   36 1  
    38   36   37 1  
    39   12    4 ar 
    40    5    4 ar 
    41   14   38 1  
    42   15   39 1  
    43   15   40 1  
    44    4   41 1  
    45    6   42 1  
    46    7   43 1  
    47    8   44 1  
    48    9   45 1  
    49   10   46 1  
    50   11   47 1  
    51   19   48 1  
    52   20   49 1  
    53   20   50 1  
    54   22   51 1  
    55   23   52 1  
    56   24   53 1  
    57   25   54 1  
    58   29   55 1  
    59   30   56 1  
    60   30   57 1  
    61   31   58 1  
    62   31   59 1  
    63   33   60 1  
    64   33   61 1  
    65   34   62 1  
    66   34   63 1  
    67   35   64 1  
    68   35   65 1  
    69   36   66 1  
    70   36   67 1  
    71   37   68 1  
    72   37   69 1  
@<TRIPOS>SUBSTRUCTURE
     1 SUB1        1 GROUP

### 
### Created by X-TOOL on Tue Dec  2 13:04:55 2003
### 

@<TRIPOS>MOLECULE
1ppc-ligand.1ppc.052
   69    72     1     0     0
SMALL
MMFF94_CHARGES


@<TRIPOS>ATOM
      1 S           0.6610   -1.8230   17.5830 S.o2      1 SUB1        1.447
      2 O1          1.9210   -2.6830   17.7500 O.2       1 SUB1       -0.650
      3 O2         -0.1400   -1.8240   18.8820 O.2       1 SUB1       -0.650
      4 C1          0.1200   -2.3990   14.9040 C.ar      1 SUB1       -0.150
      5 C2         -0.2810   -2.4920   16.2110 C.ar      1 SUB1       -0.009
      6 C3         -1.4830   -3.0760   16.4990 C.ar      1 SUB1       -0.150
      7 C4         -2.3020   -3.5100   15.4820 C.ar      1 SUB1       -0.150
      8 C5         -2.7230   -3.8670   13.1780 C.ar      1 SUB1       -0.150
      9 C6         -2.3020   -3.8010   11.8630 C.ar      1 SUB1       -0.150
     10 C7         -1.0770   -3.2390   11.5530 C.ar      1 SUB1       -0.150
     11 C8         -0.2580   -2.7420   12.5540 C.ar      1 SUB1       -0.150
     12 C9         -0.6680   -2.8560   13.8680 C.ar      1 SUB1        0.000
     13 C10        -1.8890   -3.4020   14.1740 C.ar      1 SUB1        0.000
     14 N           1.0660   -0.2220   17.4130 N.am      1 SUB1       -0.914
     15 CA         -0.0760    0.6530   17.3090 C.3       1 SUB1        0.417
     16 C          -0.8110    0.8780   18.6250 C.2       1 SUB1        0.569
     17 O          -1.9540    0.4510   18.8300 O.2       1 SUB1       -0.570
     18 C           0.1240    1.0160   21.7500 C.2       1 SUB1        0.569
     19 CA         -0.4750    2.0540   20.8010 C.3       1 SUB1        0.361
     20 CB          0.0410    3.4590   21.1500 C.3       1 SUB1        0.144
     21 CG         -0.8540    4.5690   20.6370 C.ar      1 SUB1       -0.144
     22 CD1        -2.2050    4.5780   20.9360 C.ar      1 SUB1       -0.150
     23 CD2        -0.3040    5.6210   19.9440 C.ar      1 SUB1       -0.150
     24 CE1        -3.0120    5.6170   20.5130 C.ar      1 SUB1       -0.150
     25 CE2        -1.1160    6.6540   19.5200 C.ar      1 SUB1       -0.150
     26 CZ         -2.4740    6.6790   19.8150 C.ar      1 SUB1       -0.022
     27 CF         -3.2560    7.7780   19.4300 C.cat     1 SUB1        0.731
     28 O           1.2890    1.1280   22.1470 O.2       1 SUB1       -0.570
     29 N          -0.1000    1.6690   19.4470 N.am      1 SUB1       -0.730
     30 NG1        -4.5650    7.6300   19.1530 N.pl3     1 SUB1       -1.192
     31 NG2        -2.6840    8.9870   19.4060 N.pl3     1 SUB1       -1.192
     32 N1         -0.6410   -0.0100   22.1580 N.am      1 SUB1       -0.660
     33 C2         -2.0680   -0.0890   21.8960 C.3       1 SUB1        0.300
     34 C3         -2.3150   -1.3750   21.1440 C.3       1 SUB1        0.000
     35 C4         -1.9660   -2.5250   22.0760 C.3       1 SUB1        0.000
     36 C5         -0.4910   -2.3700   22.4360 C.3       1 SUB1        0.000
     37 C6         -0.1700   -1.0360   23.0780 C.3       1 SUB1        0.300
     38 H           2.0110    0.1040   17.3840 H         1 SUB1        0.420
     39 HA1         0.2690    1.6290   16.9350 H         1 SUB1        0.000
     40 HA2        -0.7840    0.2150   16.5900 H         1 SUB1        0.000
     41 H           1.0820   -1.9550   14.6770 H         1 SUB1        0.150
     42 H          -1.7920   -3.1970   17.5300 H         1 SUB1        0.150
     43 H          -3.2730   -3.9370   15.7120 H         1 SUB1        0.150
     44 H          -3.6960   -4.2780   13.4230 H         1 SUB1        0.150
     45 H          -2.9340   -4.1910   11.0720 H         1 SUB1        0.150
     46 H          -0.7560   -3.1860   10.5190 H         1 SUB1        0.150
     47 H           0.6880   -2.2730   12.3100 H         1 SUB1        0.150
     48 H          -1.5720    2.0480   20.8920 H         1 SUB1        0.000
     49 H           1.0410    3.5840   20.7080 H         1 SUB1        0.000
     50 H           0.1110    3.5440   22.2440 H         1 SUB1        0.000
     51 H          -2.6340    3.7620   21.5080 H         1 SUB1        0.150
     52 H           0.7600    5.6410   19.7330 H         1 SUB1        0.150
     53 H          -4.0730    5.5970   20.7320 H         1 SUB1        0.150
     54 H          -0.6850    7.4640   18.9430 H         1 SUB1        0.150
     55 H           0.7660    2.0270   19.0970 H         1 SUB1        0.370
     56 H          -5.2730    7.9510   19.8280 H         1 SUB1        0.669
     57 H          -4.8580    7.1950   18.2670 H         1 SUB1        0.669
     58 H          -2.1140    9.2730   18.5970 H         1 SUB1        0.669
     59 H          -2.8120    9.6330   20.1980 H         1 SUB1        0.669
     60 H          -2.3880    0.7710   21.2880 H         1 SUB1        0.000
     61 H          -2.6260   -0.0930   22.8450 H         1 SUB1        0.000
     62 H          -1.6810   -1.4130   20.2460 H         1 SUB1        0.000
     63 H          -3.3730   -1.4400   20.8480 H         1 SUB1        0.000
     64 H          -2.1320   -3.4870   21.5690 H         1 SUB1        0.000
     65 H          -2.5840   -2.4770   22.9840 H         1 SUB1        0.000
     66 H           0.1050   -2.4680   21.5180 H         1 SUB1        0.000
     67 H          -0.2160   -3.1710   23.1390 H         1 SUB1        0.000
     68 H          -0.6870   -0.9450   24.0450 H         1 SUB1        0.000
     69 H           0.9150   -0.9400   23.2320 H         1 SUB1        0.000
@<TRIPOS>BOND
     1   15   14 1  
     2   16   15 1  
     3   16   17 2  
     4    1    2 2  
     5    1    3 2  
     6    1    5 1  
     7   14    1 1  
     8    5    6 ar 
     9    6    7 ar 
    10    7   13 ar 
    11    8    9 ar 
    12   13    8 ar 
    13    9   10 ar 
    14   11   10 ar 
    15   12   11 ar 
    16   13   12 ar 
    17   19   18 1  
    18   18   28 2  
    19   18   32 am 
    20   19   20 1  
    21   29   19 1  
    22   20   21 1  
    23   21   22 ar 
    24   22   24 ar 
    25   21   23 ar 
    26   23   25 ar 
    27   24   26 ar 
    28   25   26 ar 
    29   26   27 1  
    30   27   30 ar 
    31   27   31 ar 
    32   29   16 am 
    33   32   33 1  
    34   32   37 1  
    35   33   34 1  
    36   34   35 1  
    37   35   36 1  
    38   36   37 1  
    39   12    4 ar 
    40    5    4 ar 
    41   14   38 1  
    42   15   39 1  
    43   15   40 1  
    44    4   41 1  
    45    6   42 1  
    46    7   43 1  
    47    8   44 1  
    48    9   45 1  
    49   10   46 1  
    50   11   47 1  
    51   19   48 1  
    52   20   49 1  
    53   20   50 1  
    54   22   51 1  
    55   23   52 1  
    56   24   53 1  
    57   25   54 1  
    58   29   55 1  
    59   30   56 1  
    60   30   57 1  
    61   31   58 1  
    62   31   59 1  
    63   33   60 1  
    64   33   61 1  
    65   34   62 1  
    66   34   63 1  
    67   35   64 1  
    68   35   65 1  
    69   36   66 1  
    70   36   67 1  
    71   37   68 1  
    72   37   69 1  
@<TRIPOS>SUBSTRUCTURE
     1 SUB1        1 GROUP

### 
### Created by X-TOOL on Tue Dec  2 13:04:55 2003
### 

@<TRIPOS>MOLECULE
1ppc-ligand.1ppc.053
   69    72     1     0     0
SMALL
MMFF94_CHARGES


@<TRIPOS>ATOM
      1 S          -6.3180    4.6560   20.7280 S.o2      1 SUB1        1.447
      2 O1         -7.0550    4.5740   19.3850 O.2       1 SUB1       -0.650
      3 O2         -7.1980    5.3630   21.7560 O.2       1 SUB1       -0.650
      4 C1         -3.7220    4.9940   19.7550 C.ar      1 SUB1       -0.150
      5 C2         -4.7740    5.5260   20.4540 C.ar      1 SUB1       -0.009
      6 C3         -4.6380    6.7630   21.0210 C.ar      1 SUB1       -0.150
      7 C4         -3.4400    7.4340   20.9390 C.ar      1 SUB1       -0.150
      8 C5         -1.2080    7.5890   20.1580 C.ar      1 SUB1       -0.150
      9 C6         -0.1600    7.0640   19.4250 C.ar      1 SUB1       -0.150
     10 C7         -0.2870    5.8270   18.8200 C.ar      1 SUB1       -0.150
     11 C8         -1.4640    5.1050   18.9350 C.ar      1 SUB1       -0.150
     12 C9         -2.5210    5.6600   19.6300 C.ar      1 SUB1        0.000
     13 C10        -2.3900    6.8820   20.2410 C.ar      1 SUB1        0.000
     14 N          -6.1380    3.1450   21.3890 N.am      1 SUB1       -0.914
     15 CA         -5.5030    3.1530   22.6840 C.3       1 SUB1        0.417
     16 C          -6.3730    2.6040   23.8080 C.2       1 SUB1        0.569
     17 O          -6.3550    1.4130   24.1420 O.2       1 SUB1       -0.570
     18 C          -8.2860    4.7520   26.0600 C.2       1 SUB1        0.569
     19 CA         -8.1430    3.3880   25.3850 C.3       1 SUB1        0.361
     20 CB         -9.5110    2.8880   24.8930 C.3       1 SUB1        0.144
     21 CG         -9.8820    3.4180   23.5230 C.ar      1 SUB1       -0.144
     22 CD1        -9.6020    2.6820   22.3850 C.ar      1 SUB1       -0.150
     23 CD2       -10.5820    4.5960   23.4150 C.ar      1 SUB1       -0.150
     24 CE1        -9.9880    3.1390   21.1390 C.ar      1 SUB1       -0.150
     25 CE2       -10.9600    5.0510   22.1680 C.ar      1 SUB1       -0.150
     26 CZ        -10.6890    4.3220   21.0160 C.ar      1 SUB1       -0.022
     27 CF        -11.1500    4.7780   19.7720 C.cat     1 SUB1        0.731
     28 O          -9.3740    5.3380   26.0650 O.2       1 SUB1       -0.570
     29 N          -7.2050    3.5480   24.2820 N.am      1 SUB1       -0.730
     30 NG1       -10.2910    5.0110   18.7620 N.pl3     1 SUB1       -1.192
     31 NG2       -12.4690    4.9130   19.5940 N.pl3     1 SUB1       -1.192
     32 N1         -7.2150    5.2970   26.6600 N.am      1 SUB1       -0.660
     33 C2         -5.9700    4.5760   26.8670 C.3       1 SUB1        0.300
     34 C3         -4.8750    5.3710   26.1950 C.3       1 SUB1        0.000
     35 C4         -4.7540    6.6970   26.9300 C.3       1 SUB1        0.000
     36 C5         -6.1030    7.3980   26.8030 C.3       1 SUB1        0.000
     37 C6         -7.2550    6.5800   27.3490 C.3       1 SUB1        0.300
     38 H          -6.4410    2.3080   20.9320 H         1 SUB1        0.420
     39 HA1        -4.5890    2.5430   22.6250 H         1 SUB1        0.000
     40 HA2        -5.2350    4.1910   22.9310 H         1 SUB1        0.000
     41 H          -3.8370    4.0230   19.2870 H         1 SUB1        0.150
     42 H          -5.4770    7.2150   21.5370 H         1 SUB1        0.150
     43 H          -3.3230    8.3970   21.4240 H         1 SUB1        0.150
     44 H          -1.1030    8.5440   20.6600 H         1 SUB1        0.150
     45 H           0.7640    7.6230   19.3250 H         1 SUB1        0.150
     46 H           0.5410    5.4190   18.2520 H         1 SUB1        0.150
     47 H          -1.5540    4.1210   18.4880 H         1 SUB1        0.150
     48 H          -7.7380    2.6610   26.1050 H         1 SUB1        0.000
     49 H         -10.2790    3.2090   25.6120 H         1 SUB1        0.000
     50 H          -9.4870    1.7900   24.8490 H         1 SUB1        0.000
     51 H          -9.0760    1.7380   22.4710 H         1 SUB1        0.150
     52 H         -10.8360    5.1640   24.3040 H         1 SUB1        0.150
     53 H          -9.7380    2.5660   20.2550 H         1 SUB1        0.150
     54 H         -11.4800    5.9980   22.0850 H         1 SUB1        0.150
     55 H          -7.1780    4.4430   23.8350 H         1 SUB1        0.370
     56 H         -10.4280    4.5480   17.8520 H         1 SUB1        0.669
     57 H          -9.4980    5.6530   18.8980 H         1 SUB1        0.669
     58 H         -12.9680    5.7070   20.0200 H         1 SUB1        0.669
     59 H         -12.9860    4.2220   19.0320 H         1 SUB1        0.669
     60 H          -6.0360    3.5730   26.4200 H         1 SUB1        0.000
     61 H          -5.7630    4.4840   27.9440 H         1 SUB1        0.000
     62 H          -5.1330    5.5480   25.1410 H         1 SUB1        0.000
     63 H          -3.9240    4.8220   26.2520 H         1 SUB1        0.000
     64 H          -3.9640    7.3110   26.4750 H         1 SUB1        0.000
     65 H          -4.5170    6.5220   27.9900 H         1 SUB1        0.000
     66 H          -6.2920    7.6020   25.7390 H         1 SUB1        0.000
     67 H          -6.0570    8.3480   27.3560 H         1 SUB1        0.000
     68 H          -7.1380    6.4330   28.4320 H         1 SUB1        0.000
     69 H          -8.2100    7.0880   27.1490 H         1 SUB1        0.000
@<TRIPOS>BOND
     1   15   14 1  
     2   16   15 1  
     3   16   17 2  
     4    1    2 2  
     5    1    3 2  
     6    1    5 1  
     7   14    1 1  
     8    5    6 ar 
     9    6    7 ar 
    10    7   13 ar 
    11    8    9 ar 
    12   13    8 ar 
    13    9   10 ar 
    14   11   10 ar 
    15   12   11 ar 
    16   13   12 ar 
    17   19   18 1  
    18   18   28 2  
    19   18   32 am 
    20   19   20 1  
    21   29   19 1  
    22   20   21 1  
    23   21   22 ar 
    24   22   24 ar 
    25   21   23 ar 
    26   23   25 ar 
    27   24   26 ar 
    28   25   26 ar 
    29   26   27 1  
    30   27   30 ar 
    31   27   31 ar 
    32   29   16 am 
    33   32   33 1  
    34   32   37 1  
    35   33   34 1  
    36   34   35 1  
    37   35   36 1  
    38   36   37 1  
    39   12    4 ar 
    40    5    4 ar 
    41   14   38 1  
    42   15   39 1  
    43   15   40 1  
    44    4   41 1  
    45    6   42 1  
    46    7   43 1  
    47    8   44 1  
    48    9   45 1  
    49   10   46 1  
    50   11   47 1  
    51   19   48 1  
    52   20   49 1  
    53   20   50 1  
    54   22   51 1  
    55   23   52 1  
    56   24   53 1  
    57   25   54 1  
    58   29   55 1  
    59   30   56 1  
    60   30   57 1  
    61   31   58 1  
    62   31   59 1  
    63   33   60 1  
    64   33   61 1  
    65   34   62 1  
    66   34   63 1  
    67   35   64 1  
    68   35   65 1  
    69   36   66 1  
    70   36   67 1  
    71   37   68 1  
    72   37   69 1  
@<TRIPOS>SUBSTRUCTURE
     1 SUB1        1 GROUP

### 
### Created by X-TOOL on Tue Dec  2 13:04:55 2003
### 

@<TRIPOS>MOLECULE
1ppc-ligand.1ppc.054
   69    72     1     0     0
SMALL
MMFF94_CHARGES


@<TRIPOS>ATOM
      1 S          -0.0870   -2.0390   16.3940 S.o2      1 SUB1        1.447
      2 O1         -0.3220   -3.5420   16.1980 O.2       1 SUB1       -0.650
      3 O2          0.1310   -1.3710   15.0390 O.2       1 SUB1       -0.650
      4 C1          1.9290   -2.8860   18.1320 C.ar      1 SUB1       -0.150
      5 C2          1.3290   -1.8420   17.4760 C.ar      1 SUB1       -0.009
      6 C3          1.7890   -0.5720   17.6870 C.ar      1 SUB1       -0.150
      7 C4          2.8020   -0.3430   18.5900 C.ar      1 SUB1       -0.150
      8 C5          4.4150   -1.1420   20.1300 C.ar      1 SUB1       -0.150
      9 C6          5.0390   -2.2000   20.7650 C.ar      1 SUB1       -0.150
     10 C7          4.6070   -3.4950   20.5450 C.ar      1 SUB1       -0.150
     11 C8          3.5520   -3.7470   19.6830 C.ar      1 SUB1       -0.150
     12 C9          2.9670   -2.6880   19.0180 C.ar      1 SUB1        0.000
     13 C10         3.3880   -1.4010   19.2470 C.ar      1 SUB1        0.000
     14 N          -1.4680   -1.2990   16.9410 N.am      1 SUB1       -0.914
     15 CA         -1.3360    0.1300   17.0920 C.3       1 SUB1        0.417
     16 C          -1.5880    0.6320   18.5090 C.2       1 SUB1        0.569
     17 O          -2.5650    0.2730   19.1770 O.2       1 SUB1       -0.570
     18 C          -1.7780    3.2000   20.2460 C.2       1 SUB1        0.569
     19 CA         -0.6010    2.2300   20.1520 C.3       1 SUB1        0.361
     20 CB         -0.6490    1.2170   21.3080 C.3       1 SUB1        0.144
     21 CG         -0.7130    1.8730   22.6730 C.ar      1 SUB1       -0.144
     22 CD1         0.3850    2.5420   23.1840 C.ar      1 SUB1       -0.150
     23 CD2        -1.8980    1.8790   23.3700 C.ar      1 SUB1       -0.150
     24 CE1         0.3110    3.1840   24.4050 C.ar      1 SUB1       -0.150
     25 CE2        -1.9640    2.5180   24.5910 C.ar      1 SUB1       -0.150
     26 CZ         -0.8720    3.1970   25.1170 C.ar      1 SUB1       -0.022
     27 CF         -0.9950    3.8950   26.3270 C.cat     1 SUB1        0.731
     28 O          -2.9400    2.7870   20.1620 O.2       1 SUB1       -0.570
     29 N          -0.6880    1.5670   18.8590 N.am      1 SUB1       -0.730
     30 NG1        -0.2700    3.5410   27.4050 N.pl3     1 SUB1       -1.192
     31 NG2        -1.8010    4.9620   26.3650 N.pl3     1 SUB1       -1.192
     32 N1         -1.5320    4.5070   20.4360 N.am      1 SUB1       -0.660
     33 C2         -0.2100    5.0270   20.7470 C.3       1 SUB1        0.300
     34 C3          0.1360    6.0370   19.6780 C.3       1 SUB1        0.000
     35 C4         -0.8440    7.1940   19.8070 C.3       1 SUB1        0.000
     36 C5         -2.2400    6.6170   19.5900 C.3       1 SUB1        0.000
     37 C6         -2.5840    5.5060   20.5610 C.3       1 SUB1        0.300
     38 H          -2.3110   -1.7960   17.1460 H         1 SUB1        0.420
     39 HA1        -0.3130    0.4150   16.8020 H         1 SUB1        0.000
     40 HA2        -2.0570    0.6170   16.4200 H         1 SUB1        0.000
     41 H           1.5780   -3.8950   17.9490 H         1 SUB1        0.150
     42 H           1.3550    0.2570   17.1410 H         1 SUB1        0.150
     43 H           3.1370    0.6690   18.7840 H         1 SUB1        0.150
     44 H           4.7300   -0.1230   20.3230 H         1 SUB1        0.150
     45 H           5.8690   -2.0140   21.4380 H         1 SUB1        0.150
     46 H           5.0980   -4.3180   21.0500 H         1 SUB1        0.150
     47 H           3.1910   -4.7590   19.5340 H         1 SUB1        0.150
     48 H           0.3440    2.7900   20.2120 H         1 SUB1        0.000
     49 H           0.2540    0.5920   21.2620 H         1 SUB1        0.000
     50 H          -1.5400    0.5850   21.1820 H         1 SUB1        0.000
     51 H           1.3120    2.5620   22.6210 H         1 SUB1        0.150
     52 H          -2.7740    1.3860   22.9630 H         1 SUB1        0.150
     53 H           1.1870    3.6810   24.8050 H         1 SUB1        0.150
     54 H          -2.8900    2.4900   25.1540 H         1 SUB1        0.150
     55 H          -0.0170    1.8330   18.1670 H         1 SUB1        0.370
     56 H          -0.5220    2.6980   27.9400 H         1 SUB1        0.669
     57 H           0.5360    4.1130   27.6940 H         1 SUB1        0.669
     58 H          -2.6020    5.0260   25.7200 H         1 SUB1        0.669
     59 H          -1.6210    5.7200   27.0380 H         1 SUB1        0.669
     60 H           0.5260    4.2100   20.7450 H         1 SUB1        0.000
     61 H          -0.2190    5.5110   21.7350 H         1 SUB1        0.000
     62 H           0.0460    5.5770   18.6830 H         1 SUB1        0.000
     63 H           1.1640    6.3990   19.8230 H         1 SUB1        0.000
     64 H          -0.6290    7.9580   19.0460 H         1 SUB1        0.000
     65 H          -0.7710    7.6420   20.8080 H         1 SUB1        0.000
     66 H          -2.2990    6.2180   18.5670 H         1 SUB1        0.000
     67 H          -2.9760    7.4260   19.7110 H         1 SUB1        0.000
     68 H          -2.6180    5.8950   21.5890 H         1 SUB1        0.000
     69 H          -3.5580    5.0650   20.3030 H         1 SUB1        0.000
@<TRIPOS>BOND
     1   15   14 1  
     2   16   15 1  
     3   16   17 2  
     4    1    2 2  
     5    1    3 2  
     6    1    5 1  
     7   14    1 1  
     8    5    6 ar 
     9    6    7 ar 
    10    7   13 ar 
    11    8    9 ar 
    12   13    8 ar 
    13    9   10 ar 
    14   11   10 ar 
    15   12   11 ar 
    16   13   12 ar 
    17   19   18 1  
    18   18   28 2  
    19   18   32 am 
    20   19   20 1  
    21   29   19 1  
    22   20   21 1  
    23   21   22 ar 
    24   22   24 ar 
    25   21   23 ar 
    26   23   25 ar 
    27   24   26 ar 
    28   25   26 ar 
    29   26   27 1  
    30   27   30 ar 
    31   27   31 ar 
    32   29   16 am 
    33   32   33 1  
    34   32   37 1  
    35   33   34 1  
    36   34   35 1  
    37   35   36 1  
    38   36   37 1  
    39   12    4 ar 
    40    5    4 ar 
    41   14   38 1  
    42   15   39 1  
    43   15   40 1  
    44    4   41 1  
    45    6   42 1  
    46    7   43 1  
    47    8   44 1  
    48    9   45 1  
    49   10   46 1  
    50   11   47 1  
    51   19   48 1  
    52   20   49 1  
    53   20   50 1  
    54   22   51 1  
    55   23   52 1  
    56   24   53 1  
    57   25   54 1  
    58   29   55 1  
    59   30   56 1  
    60   30   57 1  
    61   31   58 1  
    62   31   59 1  
    63   33   60 1  
    64   33   61 1  
    65   34   62 1  
    66   34   63 1  
    67   35   64 1  
    68   35   65 1  
    69   36   66 1  
    70   36   67 1  
    71   37   68 1  
    72   37   69 1  
@<TRIPOS>SUBSTRUCTURE
     1 SUB1        1 GROUP

### 
### Created by X-TOOL on Tue Dec  2 13:04:55 2003
### 

@<TRIPOS>MOLECULE
1ppc-ligand.1ppc.055
   69    72     1     0     0
SMALL
MMFF94_CHARGES


@<TRIPOS>ATOM
      1 S          -0.9330    3.8450   23.9760 S.o2      1 SUB1        1.447
      2 O1         -1.3010    3.9590   25.4610 O.2       1 SUB1       -0.650
      3 O2          0.2620    4.7430   23.6700 O.2       1 SUB1       -0.650
      4 C1         -3.0280    3.4360   22.1730 C.ar      1 SUB1       -0.150
      5 C2         -2.3790    4.3000   23.0160 C.ar      1 SUB1       -0.009
      6 C3         -2.8110    5.5940   23.1050 C.ar      1 SUB1       -0.150
      7 C4         -3.8470    6.0330   22.3130 C.ar      1 SUB1       -0.150
      8 C5         -5.5310    5.6210   20.6980 C.ar      1 SUB1       -0.150
      9 C6         -6.2040    4.7390   19.8720 C.ar      1 SUB1       -0.150
     10 C7         -5.8000    3.4190   19.7890 C.ar      1 SUB1       -0.150
     11 C8         -4.7230    2.9650   20.5350 C.ar      1 SUB1       -0.150
     12 C9         -4.0890    3.8430   21.3910 C.ar      1 SUB1        0.000
     13 C10        -4.4820    5.1560   21.4640 C.ar      1 SUB1        0.000
     14 N          -0.3420    2.3320   23.6370 N.am      1 SUB1       -0.914
     15 CA          0.0790    2.1710   22.2660 C.3       1 SUB1        0.417
     16 C           0.7660    0.8410   21.9770 C.2       1 SUB1        0.569
     17 O           0.8890   -0.0430   22.8330 O.2       1 SUB1       -0.570
     18 C           1.9000   -0.0880   18.6010 C.2       1 SUB1        0.569
     19 CA          1.9740   -0.2970   20.1130 C.3       1 SUB1        0.361
     20 CB          3.4390   -0.3880   20.5700 C.3       1 SUB1        0.144
     21 CG          3.9320   -1.8140   20.7110 C.ar      1 SUB1       -0.144
     22 CD1         4.3040   -2.5440   19.5960 C.ar      1 SUB1       -0.150
     23 CD2         4.0970   -2.3550   21.9650 C.ar      1 SUB1       -0.150
     24 CE1         4.8030   -3.8250   19.7300 C.ar      1 SUB1       -0.150
     25 CE2         4.5920   -3.6380   22.0910 C.ar      1 SUB1       -0.150
     26 CZ          4.9720   -4.3830   20.9820 C.ar      1 SUB1       -0.022
     27 CF          5.5370   -5.6550   21.1500 C.cat     1 SUB1        0.731
     28 O           2.7270    0.6270   18.0250 O.2       1 SUB1       -0.570
     29 N           1.2890    0.8250   20.7390 N.am      1 SUB1       -0.730
     30 NG1         6.8500   -5.7980   21.4130 N.pl3     1 SUB1       -1.192
     31 NG2         4.7280   -6.7200   21.1070 N.pl3     1 SUB1       -1.192
     32 N1          0.9310   -0.7050   17.9050 N.am      1 SUB1       -0.660
     33 C2          0.0590   -1.7140   18.4840 C.3       1 SUB1        0.300
     34 C3         -1.3620   -1.2320   18.3080 C.3       1 SUB1        0.000
     35 C4         -1.6500   -1.1930   16.8150 C.3       1 SUB1        0.000
     36 C5         -0.6540   -0.2150   16.1980 C.3       1 SUB1        0.000
     37 C6          0.7900   -0.5880   16.4610 C.3       1 SUB1        0.300
     38 H          -0.2840    1.6010   24.3170 H         1 SUB1        0.420
     39 HA1        -0.8080    2.2490   21.6200 H         1 SUB1        0.000
     40 HA2         0.7820    2.9820   22.0230 H         1 SUB1        0.000
     41 H          -2.6980    2.4050   22.1180 H         1 SUB1        0.150
     42 H          -2.3380    6.2750   23.8010 H         1 SUB1        0.150
     43 H          -4.1610    7.0700   22.3560 H         1 SUB1        0.150
     44 H          -5.8250    6.6630   20.7430 H         1 SUB1        0.150
     45 H          -7.0510    5.0830   19.2880 H         1 SUB1        0.150
     46 H          -6.3280    2.7350   19.1360 H         1 SUB1        0.150
     47 H          -4.3850    1.9390   20.4460 H         1 SUB1        0.150
     48 H           1.4620   -1.2330   20.3820 H         1 SUB1        0.000
     49 H           3.5340    0.1130   21.5440 H         1 SUB1        0.000
     50 H           4.0690    0.1270   19.8300 H         1 SUB1        0.000
     51 H           4.2010   -2.1070   18.6090 H         1 SUB1        0.150
     52 H           3.8410   -1.7790   22.8470 H         1 SUB1        0.150
     53 H           5.0640   -4.3960   18.8460 H         1 SUB1        0.150
     54 H           4.6870   -4.0730   23.0790 H         1 SUB1        0.150
     55 H           1.2010    1.6610   20.1980 H         1 SUB1        0.370
     56 H           7.4240   -4.9720   21.6330 H         1 SUB1        0.669
     57 H           7.2800   -6.7330   21.3940 H         1 SUB1        0.669
     58 H           3.9180   -6.7270   20.4700 H         1 SUB1        0.669
     59 H           4.9130   -7.5330   21.7120 H         1 SUB1        0.669
     60 H           0.2850   -1.8380   19.5540 H         1 SUB1        0.000
     61 H           0.1980   -2.6750   17.9660 H         1 SUB1        0.000
     62 H          -1.4730   -0.2270   18.7390 H         1 SUB1        0.000
     63 H          -2.0570   -1.9240   18.8060 H         1 SUB1        0.000
     64 H          -2.6790   -0.8480   16.6370 H         1 SUB1        0.000
     65 H          -1.5180   -2.1930   16.3770 H         1 SUB1        0.000
     66 H          -0.8400    0.7840   16.6180 H         1 SUB1        0.000
     67 H          -0.8160   -0.1910   15.1090 H         1 SUB1        0.000
     68 H           1.0290   -1.5460   15.9760 H         1 SUB1        0.000
     69 H           1.4600    0.1950   16.0760 H         1 SUB1        0.000
@<TRIPOS>BOND
     1   15   14 1  
     2   16   15 1  
     3   16   17 2  
     4    1    2 2  
     5    1    3 2  
     6    1    5 1  
     7   14    1 1  
     8    5    6 ar 
     9    6    7 ar 
    10    7   13 ar 
    11    8    9 ar 
    12   13    8 ar 
    13    9   10 ar 
    14   11   10 ar 
    15   12   11 ar 
    16   13   12 ar 
    17   19   18 1  
    18   18   28 2  
    19   18   32 am 
    20   19   20 1  
    21   29   19 1  
    22   20   21 1  
    23   21   22 ar 
    24   22   24 ar 
    25   21   23 ar 
    26   23   25 ar 
    27   24   26 ar 
    28   25   26 ar 
    29   26   27 1  
    30   27   30 ar 
    31   27   31 ar 
    32   29   16 am 
    33   32   33 1  
    34   32   37 1  
    35   33   34 1  
    36   34   35 1  
    37   35   36 1  
    38   36   37 1  
    39   12    4 ar 
    40    5    4 ar 
    41   14   38 1  
    42   15   39 1  
    43   15   40 1  
    44    4   41 1  
    45    6   42 1  
    46    7   43 1  
    47    8   44 1  
    48    9   45 1  
    49   10   46 1  
    50   11   47 1  
    51   19   48 1  
    52   20   49 1  
    53   20   50 1  
    54   22   51 1  
    55   23   52 1  
    56   24   53 1  
    57   25   54 1  
    58   29   55 1  
    59   30   56 1  
    60   30   57 1  
    61   31   58 1  
    62   31   59 1  
    63   33   60 1  
    64   33   61 1  
    65   34   62 1  
    66   34   63 1  
    67   35   64 1  
    68   35   65 1  
    69   36   66 1  
    70   36   67 1  
    71   37   68 1  
    72   37   69 1  
@<TRIPOS>SUBSTRUCTURE
     1 SUB1        1 GROUP

### 
### Created by X-TOOL on Tue Dec  2 13:04:55 2003
### 

@<TRIPOS>MOLECULE
1ppc-ligand.1ppc.056
   69    72     1     0     0
SMALL
MMFF94_CHARGES


@<TRIPOS>ATOM
      1 S          -2.4590    4.4360   23.5790 S.o2      1 SUB1        1.447
      2 O1         -1.2940    3.5140   23.1950 O.2       1 SUB1       -0.650
      3 O2         -3.7000    3.6020   23.8800 O.2       1 SUB1       -0.650
      4 C1         -1.7210    6.2870   21.6200 C.ar      1 SUB1       -0.150
      5 C2         -2.7270    5.5740   22.2180 C.ar      1 SUB1       -0.009
      6 C3         -4.0150    5.7640   21.8010 C.ar      1 SUB1       -0.150
      7 C4         -4.2990    6.7030   20.8370 C.ar      1 SUB1       -0.150
      8 C5         -3.5920    8.3370   19.2730 C.ar      1 SUB1       -0.150
      9 C6         -2.5720    9.0320   18.6500 C.ar      1 SUB1       -0.150
     10 C7         -1.2590    8.8330   19.0370 C.ar      1 SUB1       -0.150
     11 C8         -0.9520    7.9340   20.0460 C.ar      1 SUB1       -0.150
     12 C9         -1.9740    7.2110   20.6290 C.ar      1 SUB1        0.000
     13 C10        -3.2780    7.4180   20.2530 C.ar      1 SUB1        0.000
     14 N          -2.1620    5.1770   25.0340 N.am      1 SUB1       -0.914
     15 CA         -3.2440    6.0170   25.4850 C.3       1 SUB1        0.417
     16 C          -3.6360    5.7990   26.9410 C.2       1 SUB1        0.569
     17 O          -3.1500    6.4610   27.8670 O.2       1 SUB1       -0.570
     18 C          -6.4950    4.8580   28.3570 C.2       1 SUB1        0.569
     19 CA         -5.0790    4.2860   28.3050 C.3       1 SUB1        0.361
     20 CB         -5.1190    2.7510   28.3700 C.3       1 SUB1        0.144
     21 CG         -3.7810    2.1330   28.7200 C.ar      1 SUB1       -0.144
     22 CD1        -3.4930    1.7700   30.0240 C.ar      1 SUB1       -0.150
     23 CD2        -2.8810    1.8490   27.7200 C.ar      1 SUB1       -0.150
     24 CE1        -2.2930    1.1580   30.3340 C.ar      1 SUB1       -0.150
     25 CE2        -1.6820    1.2420   28.0370 C.ar      1 SUB1       -0.150
     26 CZ         -1.3780    0.8690   29.3410 C.ar      1 SUB1       -0.022
     27 CF         -0.1830    0.1900   29.6170 C.cat     1 SUB1        0.731
     28 O          -7.4480    4.2150   27.9040 O.2       1 SUB1       -0.570
     29 N          -4.4690    4.7510   27.0670 N.am      1 SUB1       -0.730
     30 NG1         0.9770    0.8610   29.7470 N.pl3     1 SUB1       -1.192
     31 NG2        -0.2340   -1.1320   29.8130 N.pl3     1 SUB1       -1.192
     32 N1         -6.6900    6.0640   28.9150 N.am      1 SUB1       -0.660
     33 C2         -5.6540    6.7770   29.6440 C.3       1 SUB1        0.300
     34 C3         -5.4720    8.1160   28.9700 C.3       1 SUB1        0.000
     35 C4         -6.7650    8.8980   29.1460 C.3       1 SUB1        0.000
     36 C5         -7.8680    8.0860   28.4740 C.3       1 SUB1        0.000
     37 C6         -8.0030    6.6840   29.0320 C.3       1 SUB1        0.300
     38 H          -1.3130    5.0520   25.5480 H         1 SUB1        0.420
     39 HA1        -2.9410    7.0670   25.3620 H         1 SUB1        0.000
     40 HA2        -4.1240    5.8140   24.8570 H         1 SUB1        0.000
     41 H          -0.6970    6.1210   21.9360 H         1 SUB1        0.150
     42 H          -4.8150    5.1740   22.2320 H         1 SUB1        0.150
     43 H          -5.3260    6.8810   20.5370 H         1 SUB1        0.150
     44 H          -4.6250    8.5120   18.9950 H         1 SUB1        0.150
     45 H          -2.8010    9.7340   17.8560 H         1 SUB1        0.150
     46 H          -0.4650    9.3850   18.5480 H         1 SUB1        0.150
     47 H           0.0730    7.8010   20.3730 H         1 SUB1        0.150
     48 H          -4.4980    4.6610   29.1610 H         1 SUB1        0.000
     49 H          -5.4360    2.3680   27.3900 H         1 SUB1        0.000
     50 H          -5.8520    2.4520   29.1340 H         1 SUB1        0.000
     51 H          -4.2140    1.9670   30.8090 H         1 SUB1        0.150
     52 H          -3.1110    2.0990   26.6900 H         1 SUB1        0.150
     53 H          -2.0700    0.9040   31.3640 H         1 SUB1        0.150
     54 H          -0.9610    1.0520   27.2510 H         1 SUB1        0.150
     55 H          -4.6900    4.2440   26.2340 H         1 SUB1        0.370
     56 H           0.9700    1.8530   30.0240 H         1 SUB1        0.669
     57 H           1.8710    0.3830   29.5700 H         1 SUB1        0.669
     58 H          -1.0940   -1.5670   30.1780 H         1 SUB1        0.669
     59 H           0.5860   -1.7170   29.5980 H         1 SUB1        0.669
     60 H          -4.7130    6.2080   29.6140 H         1 SUB1        0.000
     61 H          -5.9620    6.9210   30.6910 H         1 SUB1        0.000
     62 H          -5.2630    7.9710   27.8990 H         1 SUB1        0.000
     63 H          -4.6380    8.6610   29.4360 H         1 SUB1        0.000
     64 H          -6.6780    9.8850   28.6700 H         1 SUB1        0.000
     65 H          -6.9870    9.0250   30.2150 H         1 SUB1        0.000
     66 H          -7.6450    8.0140   27.3990 H         1 SUB1        0.000
     67 H          -8.8250    8.6110   28.6150 H         1 SUB1        0.000
     68 H          -8.3120    6.7230   30.0870 H         1 SUB1        0.000
     69 H          -8.7450    6.1150   28.4530 H         1 SUB1        0.000
@<TRIPOS>BOND
     1   15   14 1  
     2   16   15 1  
     3   16   17 2  
     4    1    2 2  
     5    1    3 2  
     6    1    5 1  
     7   14    1 1  
     8    5    6 ar 
     9    6    7 ar 
    10    7   13 ar 
    11    8    9 ar 
    12   13    8 ar 
    13    9   10 ar 
    14   11   10 ar 
    15   12   11 ar 
    16   13   12 ar 
    17   19   18 1  
    18   18   28 2  
    19   18   32 am 
    20   19   20 1  
    21   29   19 1  
    22   20   21 1  
    23   21   22 ar 
    24   22   24 ar 
    25   21   23 ar 
    26   23   25 ar 
    27   24   26 ar 
    28   25   26 ar 
    29   26   27 1  
    30   27   30 ar 
    31   27   31 ar 
    32   29   16 am 
    33   32   33 1  
    34   32   37 1  
    35   33   34 1  
    36   34   35 1  
    37   35   36 1  
    38   36   37 1  
    39   12    4 ar 
    40    5    4 ar 
    41   14   38 1  
    42   15   39 1  
    43   15   40 1  
    44    4   41 1  
    45    6   42 1  
    46    7   43 1  
    47    8   44 1  
    48    9   45 1  
    49   10   46 1  
    50   11   47 1  
    51   19   48 1  
    52   20   49 1  
    53   20   50 1  
    54   22   51 1  
    55   23   52 1  
    56   24   53 1  
    57   25   54 1  
    58   29   55 1  
    59   30   56 1  
    60   30   57 1  
    61   31   58 1  
    62   31   59 1  
    63   33   60 1  
    64   33   61 1  
    65   34   62 1  
    66   34   63 1  
    67   35   64 1  
    68   35   65 1  
    69   36   66 1  
    70   36   67 1  
    71   37   68 1  
    72   37   69 1  
@<TRIPOS>SUBSTRUCTURE
     1 SUB1        1 GROUP

### 
### Created by X-TOOL on Tue Dec  2 13:04:55 2003
### 

@<TRIPOS>MOLECULE
1ppc-ligand.1ppc.057
   69    72     1     0     0
SMALL
MMFF94_CHARGES


@<TRIPOS>ATOM
      1 S          -4.0930    3.7340   22.3680 S.o2      1 SUB1        1.447
      2 O1         -4.5030    2.6280   21.3860 O.2       1 SUB1       -0.650
      3 O2         -5.2440    4.0260   23.3260 O.2       1 SUB1       -0.650
      4 C1         -2.7450    5.1400   20.3650 C.ar      1 SUB1       -0.150
      5 C2         -3.6360    5.1770   21.4060 C.ar      1 SUB1       -0.009
      6 C3         -4.1750    6.3780   21.7770 C.ar      1 SUB1       -0.150
      7 C4         -3.7800    7.5370   21.1500 C.ar      1 SUB1       -0.150
      8 C5         -2.5200    8.6610   19.4880 C.ar      1 SUB1       -0.150
      9 C6         -1.6460    8.6150   18.4170 C.ar      1 SUB1       -0.150
     10 C7         -1.1110    7.4080   18.0080 C.ar      1 SUB1       -0.150
     11 C8         -1.4480    6.2320   18.6600 C.ar      1 SUB1       -0.150
     12 C9         -2.3580    6.2830   19.6980 C.ar      1 SUB1        0.000
     13 C10        -2.8790    7.4840   20.1120 C.ar      1 SUB1        0.000
     14 N          -2.9020    3.1940   23.3900 N.am      1 SUB1       -0.914
     15 CA         -2.5070    4.1670   24.3800 C.3       1 SUB1        0.417
     16 C          -2.8280    3.7620   25.8130 C.2       1 SUB1        0.569
     17 O          -2.0990    3.0090   26.4710 O.2       1 SUB1       -0.570
     18 C          -6.0060    4.7470   27.4600 C.2       1 SUB1        0.569
     19 CA         -4.6300    4.0830   27.5110 C.3       1 SUB1        0.361
     20 CB         -4.7650    2.6010   27.8980 C.3       1 SUB1        0.144
     21 CG         -4.0170    2.2460   29.1670 C.ar      1 SUB1       -0.144
     22 CD1        -2.7030    1.8180   29.1130 C.ar      1 SUB1       -0.150
     23 CD2        -4.6210    2.4360   30.3880 C.ar      1 SUB1       -0.150
     24 CE1        -2.0040    1.5450   30.2730 C.ar      1 SUB1       -0.150
     25 CE2        -3.9200    2.1560   31.5430 C.ar      1 SUB1       -0.150
     26 CZ         -2.5980    1.7280   31.5060 C.ar      1 SUB1       -0.022
     27 CF         -1.8930    1.5210   32.7000 C.cat     1 SUB1        0.731
     28 O          -6.9120    4.2600   26.7740 O.2       1 SUB1       -0.570
     29 N          -4.0260    4.2380   26.1940 N.am      1 SUB1       -0.730
     30 NG1        -1.9550    2.4170   33.7030 N.pl3     1 SUB1       -1.192
     31 NG2        -1.2090    0.3800   32.8440 N.pl3     1 SUB1       -1.192
     32 N1         -6.2200    5.8580   28.1840 N.am      1 SUB1       -0.660
     33 C2         -5.2710    6.3610   29.1630 C.3       1 SUB1        0.300
     34 C3         -4.9180    7.7740   28.7600 C.3       1 SUB1        0.000
     35 C4         -6.1800    8.6140   28.8840 C.3       1 SUB1        0.000
     36 C5         -7.2100    8.0090   27.9340 C.3       1 SUB1        0.000
     37 C6         -7.5010    6.5500   28.2190 C.3       1 SUB1        0.300
     38 H          -2.4970    2.2820   23.3260 H         1 SUB1        0.420
     39 HA1        -1.4210    4.3210   24.2990 H         1 SUB1        0.000
     40 HA2        -3.0280    5.1110   24.1630 H         1 SUB1        0.000
     41 H          -2.3340    4.1860   20.0560 H         1 SUB1        0.150
     42 H          -4.9140    6.4160   22.5680 H         1 SUB1        0.150
     43 H          -4.1800    8.4920   21.4740 H         1 SUB1        0.150
     44 H          -2.9180    9.6090   19.8330 H         1 SUB1        0.150
     45 H          -1.3790    9.5290   17.8970 H         1 SUB1        0.150
     46 H          -0.4230    7.3810   17.1720 H         1 SUB1        0.150
     47 H          -1.0050    5.2890   18.3610 H         1 SUB1        0.150
     48 H          -4.0040    4.5890   28.2610 H         1 SUB1        0.000
     49 H          -4.3690    1.9880   27.0760 H         1 SUB1        0.000
     50 H          -5.8310    2.3740   28.0450 H         1 SUB1        0.000
     51 H          -2.2170    1.6960   28.1510 H         1 SUB1        0.150
     52 H          -5.6400    2.8030   30.4430 H         1 SUB1        0.150
     53 H          -0.9840    1.1840   30.2150 H         1 SUB1        0.150
     54 H          -4.4110    2.2730   32.5020 H         1 SUB1        0.150
     55 H          -4.5520    4.7440   25.5110 H         1 SUB1        0.370
     56 H          -2.2400    3.3880   33.5090 H         1 SUB1        0.669
     57 H          -1.7170    2.1330   34.6630 H         1 SUB1        0.669
     58 H          -1.3650   -0.4010   32.1900 H         1 SUB1        0.669
     59 H          -0.5260    0.2810   33.6080 H         1 SUB1        0.669
     60 H          -4.3670    5.7340   29.1680 H         1 SUB1        0.000
     61 H          -5.7260    6.3570   30.1650 H         1 SUB1        0.000
     62 H          -4.5580    7.7880   27.7210 H         1 SUB1        0.000
     63 H          -4.1370    8.1700   29.4250 H         1 SUB1        0.000
     64 H          -5.9710    9.6560   28.6010 H         1 SUB1        0.000
     65 H          -6.5550    8.5830   29.9170 H         1 SUB1        0.000
     66 H          -6.8300    8.0950   26.9060 H         1 SUB1        0.000
     67 H          -8.1480    8.5770   28.0270 H         1 SUB1        0.000
     68 H          -7.9640    6.4420   29.2110 H         1 SUB1        0.000
     69 H          -8.1750    6.1410   27.4530 H         1 SUB1        0.000
@<TRIPOS>BOND
     1   15   14 1  
     2   16   15 1  
     3   16   17 2  
     4    1    2 2  
     5    1    3 2  
     6    1    5 1  
     7   14    1 1  
     8    5    6 ar 
     9    6    7 ar 
    10    7   13 ar 
    11    8    9 ar 
    12   13    8 ar 
    13    9   10 ar 
    14   11   10 ar 
    15   12   11 ar 
    16   13   12 ar 
    17   19   18 1  
    18   18   28 2  
    19   18   32 am 
    20   19   20 1  
    21   29   19 1  
    22   20   21 1  
    23   21   22 ar 
    24   22   24 ar 
    25   21   23 ar 
    26   23   25 ar 
    27   24   26 ar 
    28   25   26 ar 
    29   26   27 1  
    30   27   30 ar 
    31   27   31 ar 
    32   29   16 am 
    33   32   33 1  
    34   32   37 1  
    35   33   34 1  
    36   34   35 1  
    37   35   36 1  
    38   36   37 1  
    39   12    4 ar 
    40    5    4 ar 
    41   14   38 1  
    42   15   39 1  
    43   15   40 1  
    44    4   41 1  
    45    6   42 1  
    46    7   43 1  
    47    8   44 1  
    48    9   45 1  
    49   10   46 1  
    50   11   47 1  
    51   19   48 1  
    52   20   49 1  
    53   20   50 1  
    54   22   51 1  
    55   23   52 1  
    56   24   53 1  
    57   25   54 1  
    58   29   55 1  
    59   30   56 1  
    60   30   57 1  
    61   31   58 1  
    62   31   59 1  
    63   33   60 1  
    64   33   61 1  
    65   34   62 1  
    66   34   63 1  
    67   35   64 1  
    68   35   65 1  
    69   36   66 1  
    70   36   67 1  
    71   37   68 1  
    72   37   69 1  
@<TRIPOS>SUBSTRUCTURE
     1 SUB1        1 GROUP

### 
### Created by X-TOOL on Tue Dec  2 13:04:55 2003
### 

@<TRIPOS>MOLECULE
1ppc-ligand.1ppc.058
   69    72     1     0     0
SMALL
MMFF94_CHARGES


@<TRIPOS>ATOM
      1 S          -5.6840    4.2740   19.7500 S.o2      1 SUB1        1.447
      2 O1         -5.5050    4.1710   18.2290 O.2       1 SUB1       -0.650
      3 O2         -6.4840    5.5270   20.0910 O.2       1 SUB1       -0.650
      4 C1         -3.5350    3.2460   21.2090 C.ar      1 SUB1       -0.150
      5 C2         -4.0520    4.2940   20.4930 C.ar      1 SUB1       -0.009
      6 C3         -3.3190    5.4420   20.3710 C.ar      1 SUB1       -0.150
      7 C4         -2.1070    5.5600   21.0100 C.ar      1 SUB1       -0.150
      8 C5         -0.3770    4.6430   22.3450 C.ar      1 SUB1       -0.150
      9 C6          0.1550    3.5730   23.0400 C.ar      1 SUB1       -0.150
     10 C7         -0.5570    2.3940   23.1520 C.ar      1 SUB1       -0.150
     11 C8         -1.8070    2.2680   22.5650 C.ar      1 SUB1       -0.150
     12 C9         -2.3080    3.3270   21.8330 C.ar      1 SUB1        0.000
     13 C10        -1.6060    4.5020   21.7340 C.ar      1 SUB1        0.000
     14 N          -6.6680    3.0580   20.3050 N.am      1 SUB1       -0.914
     15 CA         -6.9260    3.1270   21.7220 C.3       1 SUB1        0.417
     16 C          -8.2400    3.8100   22.0830 C.2       1 SUB1        0.569
     17 O          -8.3400    4.6040   23.0260 O.2       1 SUB1       -0.570
     18 C         -11.3640    3.1490   20.1950 C.2       1 SUB1        0.569
     19 CA        -10.6300    3.8110   21.3620 C.3       1 SUB1        0.361
     20 CB        -11.3070    3.4490   22.6940 C.3       1 SUB1        0.144
     21 CG        -11.7650    4.6600   23.4800 C.ar      1 SUB1       -0.144
     22 CD1       -12.9840    4.6550   24.1340 C.ar      1 SUB1       -0.150
     23 CD2       -10.9240    5.7400   23.6170 C.ar      1 SUB1       -0.150
     24 CE1       -13.3790    5.7390   24.8940 C.ar      1 SUB1       -0.150
     25 CE2       -11.3270    6.8220   24.3740 C.ar      1 SUB1       -0.150
     26 CZ        -12.5460    6.8310   25.0400 C.ar      1 SUB1       -0.022
     27 CF        -12.8930    7.9160   25.8570 C.cat     1 SUB1        0.731
     28 O         -12.0980    2.1750   20.3890 O.2       1 SUB1       -0.570
     29 N          -9.2490    3.3500   21.3220 N.am      1 SUB1       -0.730
     30 NG1       -12.3860    8.0350   27.0980 N.pl3     1 SUB1       -1.192
     31 NG2       -13.6880    8.8650   25.3480 N.pl3     1 SUB1       -1.192
     32 N1        -11.2090    3.6520   18.9600 N.am      1 SUB1       -0.660
     33 C2        -10.5290    4.9100   18.6950 C.3       1 SUB1        0.300
     34 C3         -9.3940    4.6140   17.7440 C.3       1 SUB1        0.000
     35 C4        -10.0050    4.1490   16.4310 C.3       1 SUB1        0.000
     36 C5        -10.8100    2.8890   16.7400 C.3       1 SUB1        0.000
     37 C6        -11.8810    3.1070   17.7890 C.3       1 SUB1        0.300
     38 H          -7.0440    2.3450   19.7130 H         1 SUB1        0.420
     39 HA1        -6.9500    2.1020   22.1200 H         1 SUB1        0.000
     40 HA2        -6.1060    3.6860   22.1970 H         1 SUB1        0.000
     41 H          -4.1070    2.3290   21.2880 H         1 SUB1        0.150
     42 H          -3.6950    6.2610   19.7700 H         1 SUB1        0.150
     43 H          -1.5460    6.4870   20.9450 H         1 SUB1        0.150
     44 H           0.1640    5.5800   22.2810 H         1 SUB1        0.150
     45 H           1.1340    3.6590   23.4990 H         1 SUB1        0.150
     46 H          -0.1360    1.5610   23.7020 H         1 SUB1        0.150
     47 H          -2.3800    1.3550   22.6780 H         1 SUB1        0.150
     48 H         -10.6540    4.9050   21.2400 H         1 SUB1        0.000
     49 H         -10.5900    2.8840   23.3080 H         1 SUB1        0.000
     50 H         -12.1830    2.8180   22.4810 H         1 SUB1        0.000
     51 H         -13.6360    3.7920   24.0490 H         1 SUB1        0.150
     52 H          -9.9530    5.7400   23.1360 H         1 SUB1        0.150
     53 H         -14.3480    5.7320   25.3790 H         1 SUB1        0.150
     54 H         -10.6760    7.6850   24.4510 H         1 SUB1        0.150
     55 H          -9.0320    2.6250   20.6690 H         1 SUB1        0.370
     56 H         -11.5470    8.6100   27.2590 H         1 SUB1        0.669
     57 H         -12.8380    7.5510   27.8870 H         1 SUB1        0.669
     58 H         -14.2490    9.4590   25.9760 H         1 SUB1        0.669
     59 H         -13.7410    9.0010   24.3290 H         1 SUB1        0.669
     60 H         -10.1360    5.3300   19.6330 H         1 SUB1        0.000
     61 H         -11.2280    5.6260   18.2370 H         1 SUB1        0.000
     62 H          -8.7520    3.8240   18.1610 H         1 SUB1        0.000
     63 H          -8.7960    5.5220   17.5780 H         1 SUB1        0.000
     64 H          -9.2120    3.9220   15.7040 H         1 SUB1        0.000
     65 H         -10.6640    4.9280   16.0240 H         1 SUB1        0.000
     66 H         -10.1200    2.1130   17.1010 H         1 SUB1        0.000
     67 H         -11.2940    2.5470   15.8120 H         1 SUB1        0.000
     68 H         -12.6360    3.8170   17.4190 H         1 SUB1        0.000
     69 H         -12.3660    2.1530   18.0390 H         1 SUB1        0.000
@<TRIPOS>BOND
     1   15   14 1  
     2   16   15 1  
     3   16   17 2  
     4    1    2 2  
     5    1    3 2  
     6    1    5 1  
     7   14    1 1  
     8    5    6 ar 
     9    6    7 ar 
    10    7   13 ar 
    11    8    9 ar 
    12   13    8 ar 
    13    9   10 ar 
    14   11   10 ar 
    15   12   11 ar 
    16   13   12 ar 
    17   19   18 1  
    18   18   28 2  
    19   18   32 am 
    20   19   20 1  
    21   29   19 1  
    22   20   21 1  
    23   21   22 ar 
    24   22   24 ar 
    25   21   23 ar 
    26   23   25 ar 
    27   24   26 ar 
    28   25   26 ar 
    29   26   27 1  
    30   27   30 ar 
    31   27   31 ar 
    32   29   16 am 
    33   32   33 1  
    34   32   37 1  
    35   33   34 1  
    36   34   35 1  
    37   35   36 1  
    38   36   37 1  
    39   12    4 ar 
    40    5    4 ar 
    41   14   38 1  
    42   15   39 1  
    43   15   40 1  
    44    4   41 1  
    45    6   42 1  
    46    7   43 1  
    47    8   44 1  
    48    9   45 1  
    49   10   46 1  
    50   11   47 1  
    51   19   48 1  
    52   20   49 1  
    53   20   50 1  
    54   22   51 1  
    55   23   52 1  
    56   24   53 1  
    57   25   54 1  
    58   29   55 1  
    59   30   56 1  
    60   30   57 1  
    61   31   58 1  
    62   31   59 1  
    63   33   60 1  
    64   33   61 1  
    65   34   62 1  
    66   34   63 1  
    67   35   64 1  
    68   35   65 1  
    69   36   66 1  
    70   36   67 1  
    71   37   68 1  
    72   37   69 1  
@<TRIPOS>SUBSTRUCTURE
     1 SUB1        1 GROUP

### 
### Created by X-TOOL on Tue Dec  2 13:04:55 2003
### 

@<TRIPOS>MOLECULE
1ppc-ligand.1ppc.059
   69    72     1     0     0
SMALL
MMFF94_CHARGES


@<TRIPOS>ATOM
      1 S          -6.2230    2.5810   20.4220 S.o2      1 SUB1        1.447
      2 O1         -6.1400    1.1970   19.7650 O.2       1 SUB1       -0.650
      3 O2         -7.2460    3.4410   19.6860 O.2       1 SUB1       -0.650
      4 C1         -3.5850    2.9670   21.2590 C.ar      1 SUB1       -0.150
      5 C2         -4.5820    3.3050   20.3810 C.ar      1 SUB1       -0.009
      6 C3         -4.3480    4.2810   19.4530 C.ar      1 SUB1       -0.150
      7 C4         -3.1460    4.9510   19.4420 C.ar      1 SUB1       -0.150
      8 C5         -0.9570    5.2810   20.2850 C.ar      1 SUB1       -0.150
      9 C6          0.0580    4.9150   21.1510 C.ar      1 SUB1       -0.150
     10 C7         -0.1500    3.9120   22.0790 C.ar      1 SUB1       -0.150
     11 C8         -1.3710    3.2590   22.1490 C.ar      1 SUB1       -0.150
     12 C9         -2.3610    3.6010   21.2480 C.ar      1 SUB1        0.000
     13 C10        -2.1590    4.6050   20.3350 C.ar      1 SUB1        0.000
     14 N          -6.8770    2.4660   21.9430 N.am      1 SUB1       -0.914
     15 CA         -7.0380    3.7410   22.5990 C.3       1 SUB1        0.417
     16 C          -8.4840    4.2130   22.6960 C.2       1 SUB1        0.569
     17 O          -8.9390    4.7570   23.7090 O.2       1 SUB1       -0.570
     18 C         -11.0510    3.2650   20.2110 C.2       1 SUB1        0.569
     19 CA        -10.5760    4.1860   21.3350 C.3       1 SUB1        0.361
     20 CB        -11.4490    3.9970   22.5860 C.3       1 SUB1        0.144
     21 CG        -12.6260    4.9500   22.6430 C.ar      1 SUB1       -0.144
     22 CD1       -12.4450    6.2700   23.0160 C.ar      1 SUB1       -0.150
     23 CD2       -13.8670    4.5220   22.2340 C.ar      1 SUB1       -0.150
     24 CE1       -13.5080    7.1520   23.0170 C.ar      1 SUB1       -0.150
     25 CE2       -14.9270    5.4070   22.2430 C.ar      1 SUB1       -0.150
     26 CZ        -14.7610    6.7370   22.6120 C.ar      1 SUB1       -0.022
     27 CF        -15.8440    7.6250   22.5400 C.cat     1 SUB1        0.731
     28 O         -11.4780    2.1340   20.4670 O.2       1 SUB1       -0.570
     29 N          -9.1820    3.8610   21.6020 N.am      1 SUB1       -0.730
     30 NG1       -16.4570    7.8730   21.3680 N.pl3     1 SUB1       -1.192
     31 NG2       -16.2920    8.1710   23.6770 N.pl3     1 SUB1       -1.192
     32 N1        -11.0090    3.7080   18.9440 N.am      1 SUB1       -0.660
     33 C2        -10.7130    5.0880   18.5970 C.3       1 SUB1        0.300
     34 C3         -9.5120    5.0720   17.6820 C.3       1 SUB1        0.000
     35 C4         -9.9220    4.3640   16.4000 C.3       1 SUB1        0.000
     36 C5        -10.3380    2.9490   16.7900 C.3       1 SUB1        0.000
     37 C6        -11.4580    2.9150   17.8080 C.3       1 SUB1        0.300
     38 H          -7.1340    1.5960   22.3640 H         1 SUB1        0.420
     39 HA1        -6.6330    3.6580   23.6180 H         1 SUB1        0.000
     40 HA2        -6.4660    4.4940   22.0370 H         1 SUB1        0.000
     41 H          -3.7640    2.1790   21.9820 H         1 SUB1        0.150
     42 H          -5.1100    4.5270   18.7230 H         1 SUB1        0.150
     43 H          -2.9780    5.7520   18.7300 H         1 SUB1        0.150
     44 H          -0.8100    6.0880   19.5760 H         1 SUB1        0.150
     45 H           1.0180    5.4160   21.1010 H         1 SUB1        0.150
     46 H           0.6470    3.6340   22.7580 H         1 SUB1        0.150
     47 H          -1.5460    2.4940   22.8970 H         1 SUB1        0.150
     48 H         -10.6500    5.2350   21.0080 H         1 SUB1        0.000
     49 H         -10.8240    4.1600   23.4760 H         1 SUB1        0.000
     50 H         -11.8330    2.9660   22.5920 H         1 SUB1        0.000
     51 H         -11.4600    6.6150   23.3110 H         1 SUB1        0.150
     52 H         -14.0130    3.4980   21.9080 H         1 SUB1        0.150
     53 H         -13.3580    8.1760   23.3370 H         1 SUB1        0.150
     54 H         -15.9110    5.0570   21.9540 H         1 SUB1        0.150
     55 H          -8.7000    3.3260   20.9080 H         1 SUB1        0.370
     56 H         -16.7470    7.0910   20.7630 H         1 SUB1        0.669
     57 H         -16.6370    8.8440   21.0760 H         1 SUB1        0.669
     58 H         -15.8750    9.0450   24.0290 H         1 SUB1        0.669
     59 H         -17.0540    7.7170   24.2000 H         1 SUB1        0.669
     60 H         -10.4880    5.6660   19.5060 H         1 SUB1        0.000
     61 H         -11.5750    5.5390   18.0810 H         1 SUB1        0.000
     62 H          -8.6820    4.5320   18.1610 H         1 SUB1        0.000
     63 H          -9.1970    6.1020   17.4570 H         1 SUB1        0.000
     64 H          -9.0750    4.3290   15.6990 H         1 SUB1        0.000
     65 H         -10.7650    4.8900   15.9300 H         1 SUB1        0.000
     66 H          -9.4650    2.4310   17.2130 H         1 SUB1        0.000
     67 H         -10.6730    2.4200   15.8840 H         1 SUB1        0.000
     68 H         -12.3740    3.3490   17.3810 H         1 SUB1        0.000
     69 H         -11.6550    1.8790   18.1220 H         1 SUB1        0.000
@<TRIPOS>BOND
     1   15   14 1  
     2   16   15 1  
     3   16   17 2  
     4    1    2 2  
     5    1    3 2  
     6    1    5 1  
     7   14    1 1  
     8    5    6 ar 
     9    6    7 ar 
    10    7   13 ar 
    11    8    9 ar 
    12   13    8 ar 
    13    9   10 ar 
    14   11   10 ar 
    15   12   11 ar 
    16   13   12 ar 
    17   19   18 1  
    18   18   28 2  
    19   18   32 am 
    20   19   20 1  
    21   29   19 1  
    22   20   21 1  
    23   21   22 ar 
    24   22   24 ar 
    25   21   23 ar 
    26   23   25 ar 
    27   24   26 ar 
    28   25   26 ar 
    29   26   27 1  
    30   27   30 ar 
    31   27   31 ar 
    32   29   16 am 
    33   32   33 1  
    34   32   37 1  
    35   33   34 1  
    36   34   35 1  
    37   35   36 1  
    38   36   37 1  
    39   12    4 ar 
    40    5    4 ar 
    41   14   38 1  
    42   15   39 1  
    43   15   40 1  
    44    4   41 1  
    45    6   42 1  
    46    7   43 1  
    47    8   44 1  
    48    9   45 1  
    49   10   46 1  
    50   11   47 1  
    51   19   48 1  
    52   20   49 1  
    53   20   50 1  
    54   22   51 1  
    55   23   52 1  
    56   24   53 1  
    57   25   54 1  
    58   29   55 1  
    59   30   56 1  
    60   30   57 1  
    61   31   58 1  
    62   31   59 1  
    63   33   60 1  
    64   33   61 1  
    65   34   62 1  
    66   34   63 1  
    67   35   64 1  
    68   35   65 1  
    69   36   66 1  
    70   36   67 1  
    71   37   68 1  
    72   37   69 1  
@<TRIPOS>SUBSTRUCTURE
     1 SUB1        1 GROUP

### 
### Created by X-TOOL on Tue Dec  2 13:04:55 2003
### 

@<TRIPOS>MOLECULE
1ppc-ligand.1ppc.060
   69    72     1     0     0
SMALL
MMFF94_CHARGES


@<TRIPOS>ATOM
      1 S          -2.4470    2.4890   20.2340 S.o2      1 SUB1        1.447
      2 O1         -1.5100    1.8600   19.1950 O.2       1 SUB1       -0.650
      3 O2         -3.8950    2.1410   19.9000 O.2       1 SUB1       -0.650
      4 C1         -3.1540    5.1830   20.0170 C.ar      1 SUB1       -0.150
      5 C2         -2.1630    4.2600   20.2270 C.ar      1 SUB1       -0.009
      6 C3         -0.8760    4.6920   20.3920 C.ar      1 SUB1       -0.150
      7 C4         -0.5770    6.0310   20.2880 C.ar      1 SUB1       -0.150
      8 C5         -1.2540    8.2820   19.9900 C.ar      1 SUB1       -0.150
      9 C6         -2.2600    9.2130   19.8090 C.ar      1 SUB1       -0.150
     10 C7         -3.5720    8.7980   19.6680 C.ar      1 SUB1       -0.150
     11 C8         -3.8930    7.4510   19.7120 C.ar      1 SUB1       -0.150
     12 C9         -2.8860    6.5330   19.9400 C.ar      1 SUB1        0.000
     13 C10        -1.5820    6.9440   20.0670 C.ar      1 SUB1        0.000
     14 N          -2.2380    1.7740   21.7170 N.am      1 SUB1       -0.914
     15 CA         -3.1320    2.2780   22.7310 C.3       1 SUB1        0.417
     16 C          -2.6480    2.0480   24.1580 C.2       1 SUB1        0.569
     17 O          -3.0830    1.1330   24.8680 O.2       1 SUB1       -0.570
     18 C           0.3540    2.7120   25.5730 C.2       1 SUB1        0.569
     19 CA         -1.1060    3.0880   25.8230 C.3       1 SUB1        0.361
     20 CB         -1.1990    4.4960   26.4330 C.3       1 SUB1        0.144
     21 CG         -2.6240    4.9400   26.6940 C.ar      1 SUB1       -0.144
     22 CD1        -3.4610    4.1850   27.4940 C.ar      1 SUB1       -0.150
     23 CD2        -3.0600    6.1490   26.2040 C.ar      1 SUB1       -0.150
     24 CE1        -4.7430    4.6160   27.7760 C.ar      1 SUB1       -0.150
     25 CE2        -4.3440    6.5720   26.4840 C.ar      1 SUB1       -0.150
     26 CZ         -5.1960    5.8270   27.2890 C.ar      1 SUB1       -0.022
     27 CF         -6.4680    6.3200   27.6110 C.cat     1 SUB1        0.731
     28 O           0.8580    2.8630   24.4550 O.2       1 SUB1       -0.570
     29 N          -1.7970    3.0150   24.5430 N.am      1 SUB1       -0.730
     30 NG1        -6.7740    7.6170   27.4230 N.pl3     1 SUB1       -1.192
     31 NG2        -7.3910    5.4560   28.0500 N.pl3     1 SUB1       -1.192
     32 N1          1.0850    2.2290   26.5910 N.am      1 SUB1       -0.660
     33 C2          0.6180    2.2190   27.9670 C.3       1 SUB1        0.300
     34 C3          0.6540    0.7850   28.4420 C.3       1 SUB1        0.000
     35 C4          2.1100    0.3440   28.4580 C.3       1 SUB1        0.000
     36 C5          2.6250    0.4650   27.0270 C.3       1 SUB1        0.000
     37 C6          2.4890    1.8630   26.4590 C.3       1 SUB1        0.300
     38 H          -1.5590    1.0610   21.8900 H         1 SUB1        0.420
     39 HA1        -3.2530    3.3610   22.5780 H         1 SUB1        0.000
     40 HA2        -4.1060    1.7810   22.6130 H         1 SUB1        0.000
     41 H          -4.1770    4.8420   19.9070 H         1 SUB1        0.150
     42 H          -0.0900    3.9780   20.6050 H         1 SUB1        0.150
     43 H           0.4510    6.3660   20.3790 H         1 SUB1        0.150
     44 H          -0.2200    8.5990   20.0690 H         1 SUB1        0.150
     45 H          -2.0200   10.2700   19.7780 H         1 SUB1        0.150
     46 H          -4.3550    9.5330   19.5210 H         1 SUB1        0.150
     47 H          -4.9160    7.1230   19.5700 H         1 SUB1        0.150
     48 H          -1.5580    2.3690   26.5230 H         1 SUB1        0.000
     49 H          -0.7320    5.2090   25.7390 H         1 SUB1        0.000
     50 H          -0.6510    4.5010   27.3860 H         1 SUB1        0.000
     51 H          -3.1080    3.2450   27.9050 H         1 SUB1        0.150
     52 H          -2.4000    6.7650   25.6020 H         1 SUB1        0.150
     53 H          -5.3970    4.0010   28.3820 H         1 SUB1        0.150
     54 H          -4.6950    7.5090   26.0660 H         1 SUB1        0.150
     55 H          -1.6220    3.7520   23.8900 H         1 SUB1        0.370
     56 H          -6.0320    8.3310   27.4530 H         1 SUB1        0.669
     57 H          -7.7490    7.8960   27.2480 H         1 SUB1        0.669
     58 H          -8.2940    5.8020   28.4050 H         1 SUB1        0.669
     59 H          -7.1990    4.4440   28.0330 H         1 SUB1        0.669
     60 H          -0.4090    2.6080   28.0200 H         1 SUB1        0.000
     61 H           1.2770    2.8400   28.5930 H         1 SUB1        0.000
     62 H           0.0760    0.1480   27.7570 H         1 SUB1        0.000
     63 H           0.2300    0.7140   29.4540 H         1 SUB1        0.000
     64 H           2.1860   -0.6980   28.8000 H         1 SUB1        0.000
     65 H           2.6940    0.9930   29.1260 H         1 SUB1        0.000
     66 H           2.0540   -0.2270   26.3900 H         1 SUB1        0.000
     67 H           3.6880    0.1840   27.0120 H         1 SUB1        0.000
     68 H           3.1190    2.5650   27.0240 H         1 SUB1        0.000
     69 H           2.7860    1.8730   25.4010 H         1 SUB1        0.000
@<TRIPOS>BOND
     1   15   14 1  
     2   16   15 1  
     3   16   17 2  
     4    1    2 2  
     5    1    3 2  
     6    1    5 1  
     7   14    1 1  
     8    5    6 ar 
     9    6    7 ar 
    10    7   13 ar 
    11    8    9 ar 
    12   13    8 ar 
    13    9   10 ar 
    14   11   10 ar 
    15   12   11 ar 
    16   13   12 ar 
    17   19   18 1  
    18   18   28 2  
    19   18   32 am 
    20   19   20 1  
    21   29   19 1  
    22   20   21 1  
    23   21   22 ar 
    24   22   24 ar 
    25   21   23 ar 
    26   23   25 ar 
    27   24   26 ar 
    28   25   26 ar 
    29   26   27 1  
    30   27   30 ar 
    31   27   31 ar 
    32   29   16 am 
    33   32   33 1  
    34   32   37 1  
    35   33   34 1  
    36   34   35 1  
    37   35   36 1  
    38   36   37 1  
    39   12    4 ar 
    40    5    4 ar 
    41   14   38 1  
    42   15   39 1  
    43   15   40 1  
    44    4   41 1  
    45    6   42 1  
    46    7   43 1  
    47    8   44 1  
    48    9   45 1  
    49   10   46 1  
    50   11   47 1  
    51   19   48 1  
    52   20   49 1  
    53   20   50 1  
    54   22   51 1  
    55   23   52 1  
    56   24   53 1  
    57   25   54 1  
    58   29   55 1  
    59   30   56 1  
    60   30   57 1  
    61   31   58 1  
    62   31   59 1  
    63   33   60 1  
    64   33   61 1  
    65   34   62 1  
    66   34   63 1  
    67   35   64 1  
    68   35   65 1  
    69   36   66 1  
    70   36   67 1  
    71   37   68 1  
    72   37   69 1  
@<TRIPOS>SUBSTRUCTURE
     1 SUB1        1 GROUP

### 
### Created by X-TOOL on Tue Dec  2 13:04:55 2003
### 

@<TRIPOS>MOLECULE
1ppc-ligand.1ppc.061
   69    72     1     0     0
SMALL
MMFF94_CHARGES


@<TRIPOS>ATOM
      1 S          -5.3330    4.9640   26.0020 S.o2      1 SUB1        1.447
      2 O1         -6.0350    4.2340   27.1540 O.2       1 SUB1       -0.650
      3 O2         -5.5260    6.4700   26.1500 O.2       1 SUB1       -0.650
      4 C1         -6.0720    3.0140   24.1420 C.ar      1 SUB1       -0.150
      5 C2         -6.0180    4.3450   24.4640 C.ar      1 SUB1       -0.009
      6 C3         -6.4590    5.2670   23.5550 C.ar      1 SUB1       -0.150
      7 C4         -6.8940    4.8630   22.3140 C.ar      1 SUB1       -0.150
      8 C5         -7.3960    3.1470   20.7590 C.ar      1 SUB1       -0.150
      9 C6         -7.4790    1.8020   20.4500 C.ar      1 SUB1       -0.150
     10 C7         -7.0640    0.8530   21.3660 C.ar      1 SUB1       -0.150
     11 C8         -6.5680    1.2360   22.6020 C.ar      1 SUB1       -0.150
     12 C9         -6.5340    2.5800   22.9180 C.ar      1 SUB1        0.000
     13 C10        -6.9340    3.5230   22.0040 C.ar      1 SUB1        0.000
     14 N          -3.6860    4.7990   26.1260 N.am      1 SUB1       -0.914
     15 CA         -2.9570    5.5110   25.1040 C.3       1 SUB1        0.417
     16 C          -2.5660    4.6530   23.9060 C.2       1 SUB1        0.569
     17 O          -2.7050    3.4240   23.8950 O.2       1 SUB1       -0.570
     18 C          -1.2850    6.1370   20.7730 C.2       1 SUB1        0.569
     19 CA         -1.5100    4.9110   21.6590 C.3       1 SUB1        0.361
     20 CB         -0.2110    4.1000   21.7890 C.3       1 SUB1        0.144
     21 CG         -0.1210    2.9570   20.7990 C.ar      1 SUB1       -0.144
     22 CD1         0.6860    1.8630   21.0590 C.ar      1 SUB1       -0.150
     23 CD2        -0.9140    2.9640   19.6760 C.ar      1 SUB1       -0.150
     24 CE1         0.7290    0.7960   20.1820 C.ar      1 SUB1       -0.150
     25 CE2        -0.8630    1.8980   18.8010 C.ar      1 SUB1       -0.150
     26 CZ         -0.0610    0.7910   19.0490 C.ar      1 SUB1       -0.022
     27 CF         -0.0860   -0.3050   18.1750 C.cat     1 SUB1        0.731
     28 O          -0.1400    6.5140   20.5050 O.2       1 SUB1       -0.570
     29 N          -1.9710    5.3920   22.9540 N.am      1 SUB1       -0.730
     30 NG1         0.8920   -0.4890   17.2690 N.pl3     1 SUB1       -1.192
     31 NG2        -1.0730   -1.2000   18.3080 N.pl3     1 SUB1       -1.192
     32 N1         -2.3520    6.7880   20.2800 N.am      1 SUB1       -0.660
     33 C2         -3.7100    6.2810   20.3880 C.3       1 SUB1        0.300
     34 C3         -4.5260    7.3330   21.1020 C.3       1 SUB1        0.000
     35 C4         -4.5740    8.5610   20.2060 C.3       1 SUB1        0.000
     36 C5         -3.1330    9.0210   20.0070 C.3       1 SUB1        0.000
     37 C6         -2.2420    7.9510   19.4110 C.3       1 SUB1        0.300
     38 H          -3.2420    4.2590   26.8400 H         1 SUB1        0.420
     39 HA1        -3.5850    6.3390   24.7440 H         1 SUB1        0.000
     40 HA2        -2.0380    5.9160   25.5530 H         1 SUB1        0.000
     41 H          -5.7420    2.2820   24.8700 H         1 SUB1        0.150
     42 H          -6.4650    6.3200   23.8130 H         1 SUB1        0.150
     43 H          -7.2050    5.6000   21.5820 H         1 SUB1        0.150
     44 H          -7.6900    3.8970   20.0330 H         1 SUB1        0.150
     45 H          -7.8700    1.4910   19.4880 H         1 SUB1        0.150
     46 H          -7.1270   -0.2000   21.1150 H         1 SUB1        0.150
     47 H          -6.2130    0.4940   23.3080 H         1 SUB1        0.150
     48 H          -2.2850    4.2700   21.2120 H         1 SUB1        0.000
     49 H          -0.1580    3.6860   22.8070 H         1 SUB1        0.000
     50 H           0.6410    4.7750   21.6230 H         1 SUB1        0.000
     51 H           1.2910    1.8430   21.9590 H         1 SUB1        0.150
     52 H          -1.5750    3.8010   19.4800 H         1 SUB1        0.150
     53 H           1.3860   -0.0410   20.3850 H         1 SUB1        0.150
     54 H          -1.4640    1.9250   17.8990 H         1 SUB1        0.150
     55 H          -1.8310    6.3620   23.1540 H         1 SUB1        0.370
     56 H           1.8010   -0.0200   17.3900 H         1 SUB1        0.669
     57 H           0.7310   -1.0980   16.4550 H         1 SUB1        0.669
     58 H          -1.1150   -2.0180   17.6840 H         1 SUB1        0.669
     59 H          -1.7910   -1.0700   19.0350 H         1 SUB1        0.669
     60 H          -3.7170    5.3430   20.9630 H         1 SUB1        0.000
     61 H          -4.1240    6.0990   19.3850 H         1 SUB1        0.000
     62 H          -4.0530    7.5860   22.0620 H         1 SUB1        0.000
     63 H          -5.5440    6.9600   21.2820 H         1 SUB1        0.000
     64 H          -5.1610    9.3570   20.6870 H         1 SUB1        0.000
     65 H          -5.0260    8.3060   19.2380 H         1 SUB1        0.000
     66 H          -2.7210    9.3140   20.9840 H         1 SUB1        0.000
     67 H          -3.1330    9.8910   19.3330 H         1 SUB1        0.000
     68 H          -2.5790    7.6980   18.3950 H         1 SUB1        0.000
     69 H          -1.2000    8.3010   19.3750 H         1 SUB1        0.000
@<TRIPOS>BOND
     1   15   14 1  
     2   16   15 1  
     3   16   17 2  
     4    1    2 2  
     5    1    3 2  
     6    1    5 1  
     7   14    1 1  
     8    5    6 ar 
     9    6    7 ar 
    10    7   13 ar 
    11    8    9 ar 
    12   13    8 ar 
    13    9   10 ar 
    14   11   10 ar 
    15   12   11 ar 
    16   13   12 ar 
    17   19   18 1  
    18   18   28 2  
    19   18   32 am 
    20   19   20 1  
    21   29   19 1  
    22   20   21 1  
    23   21   22 ar 
    24   22   24 ar 
    25   21   23 ar 
    26   23   25 ar 
    27   24   26 ar 
    28   25   26 ar 
    29   26   27 1  
    30   27   30 ar 
    31   27   31 ar 
    32   29   16 am 
    33   32   33 1  
    34   32   37 1  
    35   33   34 1  
    36   34   35 1  
    37   35   36 1  
    38   36   37 1  
    39   12    4 ar 
    40    5    4 ar 
    41   14   38 1  
    42   15   39 1  
    43   15   40 1  
    44    4   41 1  
    45    6   42 1  
    46    7   43 1  
    47    8   44 1  
    48    9   45 1  
    49   10   46 1  
    50   11   47 1  
    51   19   48 1  
    52   20   49 1  
    53   20   50 1  
    54   22   51 1  
    55   23   52 1  
    56   24   53 1  
    57   25   54 1  
    58   29   55 1  
    59   30   56 1  
    60   30   57 1  
    61   31   58 1  
    62   31   59 1  
    63   33   60 1  
    64   33   61 1  
    65   34   62 1  
    66   34   63 1  
    67   35   64 1  
    68   35   65 1  
    69   36   66 1  
    70   36   67 1  
    71   37   68 1  
    72   37   69 1  
@<TRIPOS>SUBSTRUCTURE
     1 SUB1        1 GROUP

### 
### Created by X-TOOL on Tue Dec  2 13:04:55 2003
### 

@<TRIPOS>MOLECULE
1ppc-ligand.1ppc.062
   69    72     1     0     0
SMALL
MMFF94_CHARGES


@<TRIPOS>ATOM
      1 S          -3.7440    3.2440   24.9890 S.o2      1 SUB1        1.447
      2 O1         -2.9360    2.1120   25.6380 O.2       1 SUB1       -0.650
      3 O2         -4.6060    3.9320   26.0440 O.2       1 SUB1       -0.650
      4 C1         -6.1030    2.4840   23.7000 C.ar      1 SUB1       -0.150
      5 C2         -4.7330    2.5270   23.6760 C.ar      1 SUB1       -0.009
      6 C3         -4.0680    1.9530   22.6280 C.ar      1 SUB1       -0.150
      7 C4         -4.7660    1.2920   21.6450 C.ar      1 SUB1       -0.150
      8 C5         -6.8140    0.5980   20.6750 C.ar      1 SUB1       -0.150
      9 C6         -8.1960    0.5840   20.6860 C.ar      1 SUB1       -0.150
     10 C7         -8.8890    1.1830   21.7220 C.ar      1 SUB1       -0.150
     11 C8         -8.2080    1.8070   22.7550 C.ar      1 SUB1       -0.150
     12 C9         -6.8280    1.8560   22.7100 C.ar      1 SUB1        0.000
     13 C10        -6.1410    1.2500   21.6880 C.ar      1 SUB1        0.000
     14 N          -2.7400    4.4680   24.4920 N.am      1 SUB1       -0.914
     15 CA         -3.4400    5.5940   23.9240 C.3       1 SUB1        0.417
     16 C          -3.9370    5.3650   22.5010 C.2       1 SUB1        0.569
     17 O          -5.1370    5.2540   22.2260 O.2       1 SUB1       -0.570
     18 C          -3.6320    6.2720   19.6250 C.2       1 SUB1        0.569
     19 CA         -3.0120    5.0040   20.2110 C.3       1 SUB1        0.361
     20 CB         -1.6360    4.7400   19.5790 C.3       1 SUB1        0.144
     21 CG         -0.9760    3.4760   20.0920 C.ar      1 SUB1       -0.144
     22 CD1        -1.1560    2.2720   19.4360 C.ar      1 SUB1       -0.150
     23 CD2        -0.1200    3.5440   21.1660 C.ar      1 SUB1       -0.150
     24 CE1        -0.5120    1.1300   19.8720 C.ar      1 SUB1       -0.150
     25 CE2         0.5170    2.3980   21.6010 C.ar      1 SUB1       -0.150
     26 CZ          0.3480    1.1810   20.9510 C.ar      1 SUB1       -0.022
     27 CF          1.0650    0.0530   21.3750 C.cat     1 SUB1        0.731
     28 O          -4.7110    6.2230   19.0250 O.2       1 SUB1       -0.570
     29 N          -2.9090    5.1980   21.6510 N.am      1 SUB1       -0.730
     30 NG1         2.3000   -0.1980   20.9030 N.pl3     1 SUB1       -1.192
     31 NG2         0.5160   -0.7320   22.3100 N.pl3     1 SUB1       -1.192
     32 N1         -2.9930    7.4430   19.7850 N.am      1 SUB1       -0.660
     33 C2         -1.8360    7.6030   20.6500 C.3       1 SUB1        0.300
     34 C3         -0.7080    8.1320   19.7960 C.3       1 SUB1        0.000
     35 C4         -1.1080    9.5200   19.3180 C.3       1 SUB1        0.000
     36 C5         -2.3880    9.3570   18.5040 C.3       1 SUB1        0.000
     37 C6         -3.5130    8.7080   19.2840 C.3       1 SUB1        0.300
     38 H          -1.7440    4.4280   24.5780 H         1 SUB1        0.420
     39 HA1        -4.3090    5.8180   24.5610 H         1 SUB1        0.000
     40 HA2        -2.7590    6.4570   23.9160 H         1 SUB1        0.000
     41 H          -6.6310    2.9580   24.5200 H         1 SUB1        0.150
     42 H          -2.9880    2.0200   22.5730 H         1 SUB1        0.150
     43 H          -4.2330    0.8030   20.8360 H         1 SUB1        0.150
     44 H          -6.2660    0.1030   19.8810 H         1 SUB1        0.150
     45 H          -8.7390    0.1030   19.8800 H         1 SUB1        0.150
     46 H          -9.9720    1.1640   21.7260 H         1 SUB1        0.150
     47 H          -8.7490    2.2490   23.5840 H         1 SUB1        0.150
     48 H          -3.6670    4.1440   20.0050 H         1 SUB1        0.000
     49 H          -0.9790    5.5930   19.8020 H         1 SUB1        0.000
     50 H          -1.7620    4.6500   18.4900 H         1 SUB1        0.000
     51 H          -1.8090    2.2230   18.5710 H         1 SUB1        0.150
     52 H           0.0550    4.4890   21.6670 H         1 SUB1        0.150
     53 H          -0.6840    0.1880   19.3650 H         1 SUB1        0.150
     54 H           1.1630    2.4490   22.4690 H         1 SUB1        0.150
     55 H          -1.9890    5.2080   22.0430 H         1 SUB1        0.370
     56 H           3.0880    0.4090   21.1720 H         1 SUB1        0.669
     57 H           2.4570   -0.9960   20.2720 H         1 SUB1        0.669
     58 H          -0.5010   -0.7070   22.4720 H         1 SUB1        0.669
     59 H           1.1110   -1.3610   22.8670 H         1 SUB1        0.669
     60 H          -1.5550    6.6330   21.0870 H         1 SUB1        0.000
     61 H          -2.0640    8.3150   21.4570 H         1 SUB1        0.000
     62 H          -0.5490    7.4690   18.9320 H         1 SUB1        0.000
     63 H           0.2160    8.1910   20.3880 H         1 SUB1        0.000
     64 H          -0.3130    9.9480   18.6900 H         1 SUB1        0.000
     65 H          -1.2890   10.1780   20.1800 H         1 SUB1        0.000
     66 H          -2.1670    8.7330   17.6260 H         1 SUB1        0.000
     67 H          -2.7210   10.3520   18.1730 H         1 SUB1        0.000
     68 H          -3.8150    9.3530   20.1220 H         1 SUB1        0.000
     69 H          -4.3770    8.5300   18.6280 H         1 SUB1        0.000
@<TRIPOS>BOND
     1   15   14 1  
     2   16   15 1  
     3   16   17 2  
     4    1    2 2  
     5    1    3 2  
     6    1    5 1  
     7   14    1 1  
     8    5    6 ar 
     9    6    7 ar 
    10    7   13 ar 
    11    8    9 ar 
    12   13    8 ar 
    13    9   10 ar 
    14   11   10 ar 
    15   12   11 ar 
    16   13   12 ar 
    17   19   18 1  
    18   18   28 2  
    19   18   32 am 
    20   19   20 1  
    21   29   19 1  
    22   20   21 1  
    23   21   22 ar 
    24   22   24 ar 
    25   21   23 ar 
    26   23   25 ar 
    27   24   26 ar 
    28   25   26 ar 
    29   26   27 1  
    30   27   30 ar 
    31   27   31 ar 
    32   29   16 am 
    33   32   33 1  
    34   32   37 1  
    35   33   34 1  
    36   34   35 1  
    37   35   36 1  
    38   36   37 1  
    39   12    4 ar 
    40    5    4 ar 
    41   14   38 1  
    42   15   39 1  
    43   15   40 1  
    44    4   41 1  
    45    6   42 1  
    46    7   43 1  
    47    8   44 1  
    48    9   45 1  
    49   10   46 1  
    50   11   47 1  
    51   19   48 1  
    52   20   49 1  
    53   20   50 1  
    54   22   51 1  
    55   23   52 1  
    56   24   53 1  
    57   25   54 1  
    58   29   55 1  
    59   30   56 1  
    60   30   57 1  
    61   31   58 1  
    62   31   59 1  
    63   33   60 1  
    64   33   61 1  
    65   34   62 1  
    66   34   63 1  
    67   35   64 1  
    68   35   65 1  
    69   36   66 1  
    70   36   67 1  
    71   37   68 1  
    72   37   69 1  
@<TRIPOS>SUBSTRUCTURE
     1 SUB1        1 GROUP

### 
### Created by X-TOOL on Tue Dec  2 13:04:55 2003
### 

@<TRIPOS>MOLECULE
1ppc-ligand.1ppc.063
   69    72     1     0     0
SMALL
MMFF94_CHARGES


@<TRIPOS>ATOM
      1 S          -3.1380    4.2010   25.1780 S.o2      1 SUB1        1.447
      2 O1         -3.4670    3.5460   26.5260 O.2       1 SUB1       -0.650
      3 O2         -2.9980    5.7100   25.3580 O.2       1 SUB1       -0.650
      4 C1         -4.8900    4.6230   23.0430 C.ar      1 SUB1       -0.150
      5 C2         -4.4510    3.7800   24.0300 C.ar      1 SUB1       -0.009
      6 C3         -5.0680    2.5710   24.1960 C.ar      1 SUB1       -0.150
      7 C4         -6.1530    2.2360   23.4190 C.ar      1 SUB1       -0.150
      8 C5         -7.6630    2.7230   21.6600 C.ar      1 SUB1       -0.150
      9 C6         -8.0830    3.5620   20.6440 C.ar      1 SUB1       -0.150
     10 C7         -7.4550    4.7770   20.4420 C.ar      1 SUB1       -0.150
     11 C8         -6.3960    5.1640   21.2480 C.ar      1 SUB1       -0.150
     12 C9         -5.9540    4.2980   22.2290 C.ar      1 SUB1        0.000
     13 C10        -6.5870    3.0970   22.4370 C.ar      1 SUB1        0.000
     14 N          -1.6230    3.7580   24.6690 N.am      1 SUB1       -0.914
     15 CA         -1.2240    4.3850   23.4310 C.3       1 SUB1        0.417
     16 C          -1.5280    3.5580   22.1880 C.2       1 SUB1        0.569
     17 O          -1.9490    2.3970   22.2480 O.2       1 SUB1       -0.570
     18 C          -1.0350    4.9160   18.7740 C.2       1 SUB1        0.569
     19 CA         -1.3650    3.7480   19.7050 C.3       1 SUB1        0.361
     20 CB         -0.4610    2.5440   19.3930 C.3       1 SUB1        0.144
     21 CG         -1.2340    1.2580   19.1810 C.ar      1 SUB1       -0.144
     22 CD1        -1.4950    0.7970   17.9030 C.ar      1 SUB1       -0.150
     23 CD2        -1.5990    0.4970   20.2660 C.ar      1 SUB1       -0.150
     24 CE1        -2.1530   -0.4030   17.7090 C.ar      1 SUB1       -0.150
     25 CE2        -2.2610   -0.6980   20.0660 C.ar      1 SUB1       -0.150
     26 CZ         -2.5280   -1.1760   18.7890 C.ar      1 SUB1       -0.022
     27 CF         -3.1380   -2.4270   18.6210 C.cat     1 SUB1        0.731
     28 O          -0.1920    4.7860   17.8800 O.2       1 SUB1       -0.570
     29 N          -1.1760    4.2170   21.0700 N.am      1 SUB1       -0.730
     30 NG1        -2.4790   -3.4430   18.0340 N.pl3     1 SUB1       -1.192
     31 NG2        -4.3680   -2.6050   19.1180 N.pl3     1 SUB1       -1.192
     32 N1         -1.6870    6.0790   18.9340 N.am      1 SUB1       -0.660
     33 C2         -2.8260    6.2350   19.8240 C.3       1 SUB1        0.300
     34 C3         -2.4790    7.3270   20.8080 C.3       1 SUB1        0.000
     35 C4         -2.3410    8.6230   20.0240 C.3       1 SUB1        0.000
     36 C5         -1.2170    8.4120   19.0150 C.3       1 SUB1        0.000
     37 C6         -1.4600    7.2410   18.0850 C.3       1 SUB1        0.300
     38 H          -1.0410    3.1180   25.1710 H         1 SUB1        0.420
     39 HA1        -1.7530    5.3460   23.3450 H         1 SUB1        0.000
     40 HA2        -0.1400    4.5660   23.4690 H         1 SUB1        0.000
     41 H          -4.3870    5.5730   22.8980 H         1 SUB1        0.150
     42 H          -4.7020    1.8760   24.9420 H         1 SUB1        0.150
     43 H          -6.6650    1.2940   23.5790 H         1 SUB1        0.150
     44 H          -8.1730    1.7840   21.8420 H         1 SUB1        0.150
     45 H          -8.9080    3.2670   20.0040 H         1 SUB1        0.150
     46 H          -7.7920    5.4320   19.6470 H         1 SUB1        0.150
     47 H          -5.9230    6.1300   21.1120 H         1 SUB1        0.150
     48 H          -2.4140    3.4490   19.5630 H         1 SUB1        0.000
     49 H           0.2320    2.4010   20.2340 H         1 SUB1        0.000
     50 H           0.1100    2.7630   18.4790 H         1 SUB1        0.000
     51 H          -1.1810    1.3820   17.0450 H         1 SUB1        0.150
     52 H          -1.3700    0.8330   21.2710 H         1 SUB1        0.150
     53 H          -2.3740   -0.7380   16.7030 H         1 SUB1        0.150
     54 H          -2.5790   -1.2770   20.9250 H         1 SUB1        0.150
     55 H          -0.7460    5.1120   21.1870 H         1 SUB1        0.370
     56 H          -1.5970   -3.2640   17.5340 H         1 SUB1        0.669
     57 H          -2.8570   -4.4000   18.0840 H         1 SUB1        0.669
     58 H          -4.8740   -1.8130   19.5400 H         1 SUB1        0.669
     59 H          -4.8100   -3.5350   19.0790 H         1 SUB1        0.669
     60 H          -3.0180    5.2920   20.3580 H         1 SUB1        0.000
     61 H          -3.7190    6.5170   19.2460 H         1 SUB1        0.000
     62 H          -1.5310    7.0900   21.3130 H         1 SUB1        0.000
     63 H          -3.2790    7.4240   21.5570 H         1 SUB1        0.000
     64 H          -2.0900    9.4510   20.7030 H         1 SUB1        0.000
     65 H          -3.2810    8.8500   19.5010 H         1 SUB1        0.000
     66 H          -0.2820    8.2330   19.5650 H         1 SUB1        0.000
     67 H          -1.1160    9.3240   18.4080 H         1 SUB1        0.000
     68 H          -2.3440    7.4310   17.4580 H         1 SUB1        0.000
     69 H          -0.5830    7.0770   17.4430 H         1 SUB1        0.000
@<TRIPOS>BOND
     1   15   14 1  
     2   16   15 1  
     3   16   17 2  
     4    1    2 2  
     5    1    3 2  
     6    1    5 1  
     7   14    1 1  
     8    5    6 ar 
     9    6    7 ar 
    10    7   13 ar 
    11    8    9 ar 
    12   13    8 ar 
    13    9   10 ar 
    14   11   10 ar 
    15   12   11 ar 
    16   13   12 ar 
    17   19   18 1  
    18   18   28 2  
    19   18   32 am 
    20   19   20 1  
    21   29   19 1  
    22   20   21 1  
    23   21   22 ar 
    24   22   24 ar 
    25   21   23 ar 
    26   23   25 ar 
    27   24   26 ar 
    28   25   26 ar 
    29   26   27 1  
    30   27   30 ar 
    31   27   31 ar 
    32   29   16 am 
    33   32   33 1  
    34   32   37 1  
    35   33   34 1  
    36   34   35 1  
    37   35   36 1  
    38   36   37 1  
    39   12    4 ar 
    40    5    4 ar 
    41   14   38 1  
    42   15   39 1  
    43   15   40 1  
    44    4   41 1  
    45    6   42 1  
    46    7   43 1  
    47    8   44 1  
    48    9   45 1  
    49   10   46 1  
    50   11   47 1  
    51   19   48 1  
    52   20   49 1  
    53   20   50 1  
    54   22   51 1  
    55   23   52 1  
    56   24   53 1  
    57   25   54 1  
    58   29   55 1  
    59   30   56 1  
    60   30   57 1  
    61   31   58 1  
    62   31   59 1  
    63   33   60 1  
    64   33   61 1  
    65   34   62 1  
    66   34   63 1  
    67   35   64 1  
    68   35   65 1  
    69   36   66 1  
    70   36   67 1  
    71   37   68 1  
    72   37   69 1  
@<TRIPOS>SUBSTRUCTURE
     1 SUB1        1 GROUP

### 
### Created by X-TOOL on Tue Dec  2 13:04:55 2003
### 

@<TRIPOS>MOLECULE
1ppc-ligand.1ppc.064
   69    72     1     0     0
SMALL
MMFF94_CHARGES


@<TRIPOS>ATOM
      1 S          -0.7990    3.6280   24.6610 S.o2      1 SUB1        1.447
      2 O1         -1.3030    4.5120   25.8090 O.2       1 SUB1       -0.650
      3 O2          0.6850    3.3280   24.8550 O.2       1 SUB1       -0.650
      4 C1         -2.3480    4.9760   22.7670 C.ar      1 SUB1       -0.150
      5 C2         -1.1150    4.4950   23.1230 C.ar      1 SUB1       -0.009
      6 C3         -0.0710    4.6300   22.2500 C.ar      1 SUB1       -0.150
      7 C4         -0.2740    5.1880   21.0090 C.ar      1 SUB1       -0.150
      8 C5         -1.6880    6.2320   19.4200 C.ar      1 SUB1       -0.150
      9 C6         -2.9250    6.7450   19.0770 C.ar      1 SUB1       -0.150
     10 C7         -3.9870    6.6440   19.9570 C.ar      1 SUB1       -0.150
     11 C8         -3.8230    6.0350   21.1910 C.ar      1 SUB1       -0.150
     12 C9         -2.5710    5.5690   21.5420 C.ar      1 SUB1        0.000
     13 C10        -1.5210    5.6580   20.6630 C.ar      1 SUB1        0.000
     14 N          -1.4840    2.1190   24.7430 N.am      1 SUB1       -0.914
     15 CA         -1.0090    1.2140   23.7240 C.3       1 SUB1        0.417
     16 C          -2.1150    0.5810   22.8890 C.2       1 SUB1        0.569
     17 O          -2.6710   -0.4760   23.2130 O.2       1 SUB1       -0.570
     18 C          -4.0260    2.2750   20.4060 C.2       1 SUB1        0.569
     19 CA         -3.3100    0.9640   20.7310 C.3       1 SUB1        0.361
     20 CB         -2.6740    0.3740   19.4620 C.3       1 SUB1        0.144
     21 CG         -1.1920    0.0950   19.6120 C.ar      1 SUB1       -0.144
     22 CD1        -0.7420   -1.1800   19.9030 C.ar      1 SUB1       -0.150
     23 CD2        -0.2840    1.0990   19.3680 C.ar      1 SUB1       -0.150
     24 CE1         0.6120   -1.4450   19.9870 C.ar      1 SUB1       -0.150
     25 CE2         1.0670    0.8290   19.4590 C.ar      1 SUB1       -0.150
     26 CZ          1.5360   -0.4470   19.7470 C.ar      1 SUB1       -0.022
     27 CF          2.9150   -0.7030   19.7620 C.cat     1 SUB1        0.731
     28 O          -3.4310    3.1860   19.8190 O.2       1 SUB1       -0.570
     29 N          -2.3060    1.2590   21.7440 N.am      1 SUB1       -0.730
     30 NG1         3.5890   -0.9150   18.6160 N.pl3     1 SUB1       -1.192
     31 NG2         3.5550   -0.6650   20.9360 N.pl3     1 SUB1       -1.192
     32 N1         -5.3150    2.4170   20.7550 N.am      1 SUB1       -0.660
     33 C2         -6.1250    1.3190   21.2590 C.3       1 SUB1        0.300
     34 C3         -6.6450    1.7320   22.6150 C.3       1 SUB1        0.000
     35 C4         -7.5740    2.9190   22.4080 C.3       1 SUB1        0.000
     36 C5         -6.7400    4.0290   21.7750 C.3       1 SUB1        0.000
     37 C6         -6.0900    3.6170   20.4710 C.3       1 SUB1        0.300
     38 H          -2.1610    1.8610   25.4320 H         1 SUB1        0.420
     39 HA1        -0.3430    1.7730   23.0490 H         1 SUB1        0.000
     40 HA2        -0.4420    0.4090   24.2140 H         1 SUB1        0.000
     41 H          -3.1700    4.8880   23.4680 H         1 SUB1        0.150
     42 H           0.9190    4.2960   22.5370 H         1 SUB1        0.150
     43 H           0.5470    5.2570   20.3040 H         1 SUB1        0.150
     44 H          -0.8600    6.2810   18.7220 H         1 SUB1        0.150
     45 H          -3.0640    7.2270   18.1160 H         1 SUB1        0.150
     46 H          -4.9550    7.0430   19.6790 H         1 SUB1        0.150
     47 H          -4.6620    5.9270   21.8690 H         1 SUB1        0.150
     48 H          -4.0330    0.2390   21.1340 H         1 SUB1        0.000
     49 H          -2.8140    1.0860   18.6370 H         1 SUB1        0.000
     50 H          -3.1840   -0.5710   19.2220 H         1 SUB1        0.000
     51 H          -1.4570   -1.9780   20.0670 H         1 SUB1        0.150
     52 H          -0.6260    2.0940   19.1060 H         1 SUB1        0.150
     53 H           0.9500   -2.4420   20.2430 H         1 SUB1        0.150
     54 H           1.7790    1.6300   19.3010 H         1 SUB1        0.150
     55 H          -1.7020    2.0370   21.5710 H         1 SUB1        0.370
     56 H           4.4710   -1.4470   18.6290 H         1 SUB1        0.669
     57 H           3.2230   -0.5460   17.7280 H         1 SUB1        0.669
     58 H           4.5800   -0.7560   20.9680 H         1 SUB1        0.669
     59 H           3.0220   -0.5460   21.8100 H         1 SUB1        0.669
     60 H          -5.5130    0.4100   21.3500 H         1 SUB1        0.000
     61 H          -6.9660    1.1280   20.5750 H         1 SUB1        0.000
     62 H          -5.8070    2.0210   23.2660 H         1 SUB1        0.000
     63 H          -7.1970    0.9000   23.0750 H         1 SUB1        0.000
     64 H          -7.9800    3.2550   23.3740 H         1 SUB1        0.000
     65 H          -8.4010    2.6390   21.7400 H         1 SUB1        0.000
     66 H          -5.9510    4.3200   22.4830 H         1 SUB1        0.000
     67 H          -7.3950    4.8910   21.5810 H         1 SUB1        0.000
     68 H          -6.8580    3.4020   19.7140 H         1 SUB1        0.000
     69 H          -5.4300    4.4170   20.1060 H         1 SUB1        0.000
@<TRIPOS>BOND
     1   15   14 1  
     2   16   15 1  
     3   16   17 2  
     4    1    2 2  
     5    1    3 2  
     6    1    5 1  
     7   14    1 1  
     8    5    6 ar 
     9    6    7 ar 
    10    7   13 ar 
    11    8    9 ar 
    12   13    8 ar 
    13    9   10 ar 
    14   11   10 ar 
    15   12   11 ar 
    16   13   12 ar 
    17   19   18 1  
    18   18   28 2  
    19   18   32 am 
    20   19   20 1  
    21   29   19 1  
    22   20   21 1  
    23   21   22 ar 
    24   22   24 ar 
    25   21   23 ar 
    26   23   25 ar 
    27   24   26 ar 
    28   25   26 ar 
    29   26   27 1  
    30   27   30 ar 
    31   27   31 ar 
    32   29   16 am 
    33   32   33 1  
    34   32   37 1  
    35   33   34 1  
    36   34   35 1  
    37   35   36 1  
    38   36   37 1  
    39   12    4 ar 
    40    5    4 ar 
    41   14   38 1  
    42   15   39 1  
    43   15   40 1  
    44    4   41 1  
    45    6   42 1  
    46    7   43 1  
    47    8   44 1  
    48    9   45 1  
    49   10   46 1  
    50   11   47 1  
    51   19   48 1  
    52   20   49 1  
    53   20   50 1  
    54   22   51 1  
    55   23   52 1  
    56   24   53 1  
    57   25   54 1  
    58   29   55 1  
    59   30   56 1  
    60   30   57 1  
    61   31   58 1  
    62   31   59 1  
    63   33   60 1  
    64   33   61 1  
    65   34   62 1  
    66   34   63 1  
    67   35   64 1  
    68   35   65 1  
    69   36   66 1  
    70   36   67 1  
    71   37   68 1  
    72   37   69 1  
@<TRIPOS>SUBSTRUCTURE
     1 SUB1        1 GROUP

### 
### Created by X-TOOL on Tue Dec  2 13:04:55 2003
### 

@<TRIPOS>MOLECULE
1ppc-ligand.1ppc.065
   69    72     1     0     0
SMALL
MMFF94_CHARGES


@<TRIPOS>ATOM
      1 S          -5.2910   -0.9970   20.1110 S.o2      1 SUB1        1.447
      2 O1         -6.7190   -1.3710   19.6900 O.2       1 SUB1       -0.650
      3 O2         -4.4440   -0.7220   18.8710 O.2       1 SUB1       -0.650
      4 C1         -3.2970   -2.6260   21.1930 C.ar      1 SUB1       -0.150
      5 C2         -4.6350   -2.3500   21.0880 C.ar      1 SUB1       -0.009
      6 C3         -5.5340   -3.1690   21.7120 C.ar      1 SUB1       -0.150
      7 C4         -5.1000   -4.2870   22.3860 C.ar      1 SUB1       -0.150
      8 C5         -3.3470   -5.6710   23.1770 C.ar      1 SUB1       -0.150
      9 C6         -1.9950   -5.9290   23.3080 C.ar      1 SUB1       -0.150
     10 C7         -1.0680   -5.0970   22.7080 C.ar      1 SUB1       -0.150
     11 C8         -1.4820   -3.9950   21.9750 C.ar      1 SUB1       -0.150
     12 C9         -2.8330   -3.7220   21.8900 C.ar      1 SUB1        0.000
     13 C10        -3.7530   -4.5550   22.4760 C.ar      1 SUB1        0.000
     14 N          -5.2780    0.4700   20.8870 N.am      1 SUB1       -0.914
     15 CA         -3.9560    0.9130   21.2600 C.3       1 SUB1        0.417
     16 C          -3.8400    2.4180   21.4680 C.2       1 SUB1        0.569
     17 O          -4.7280    3.0850   22.0130 O.2       1 SUB1       -0.570
     18 C          -0.8830    4.2890   21.5760 C.2       1 SUB1        0.569
     19 CA         -2.2710    4.2850   20.9350 C.3       1 SUB1        0.361
     20 CB         -2.2120    4.8990   19.5280 C.3       1 SUB1        0.144
     21 CG         -2.3590    6.4080   19.5290 C.ar      1 SUB1       -0.144
     22 CD1        -3.2660    7.0260   20.3710 C.ar      1 SUB1       -0.150
     23 CD2        -1.5220    7.1730   18.7510 C.ar      1 SUB1       -0.150
     24 CE1        -3.3620    8.4030   20.4110 C.ar      1 SUB1       -0.150
     25 CE2        -1.6270    8.5490   18.7910 C.ar      1 SUB1       -0.150
     26 CZ         -2.5300    9.1850   19.6340 C.ar      1 SUB1       -0.022
     27 CF         -2.5620   10.5850   19.7020 C.cat     1 SUB1        0.731
     28 O           0.1310    4.2030   20.8750 O.2       1 SUB1       -0.570
     29 N          -2.7240    2.9010   20.8950 N.am      1 SUB1       -0.730
     30 NG1        -1.4220   11.3010   19.7150 N.pl3     1 SUB1       -1.192
     31 NG2        -3.7530   11.1950   19.6870 N.pl3     1 SUB1       -1.192
     32 N1         -0.7820    4.4030   22.9100 N.am      1 SUB1       -0.660
     33 C2         -1.9150    4.7120   23.7670 C.3       1 SUB1        0.300
     34 C3         -2.0340    3.5910   24.7730 C.3       1 SUB1        0.000
     35 C4         -0.7880    3.6230   25.6450 C.3       1 SUB1        0.000
     36 C5          0.4060    3.4100   24.7190 C.3       1 SUB1        0.000
     37 C6          0.4940    4.4390   23.6110 C.3       1 SUB1        0.300
     38 H          -6.1070    0.9960   21.0770 H         1 SUB1        0.420
     39 HA1        -3.6760    0.4110   22.1980 H         1 SUB1        0.000
     40 HA2        -3.2560    0.6200   20.4640 H         1 SUB1        0.000
     41 H          -2.5830   -1.9640   20.7160 H         1 SUB1        0.150
     42 H          -6.5920   -2.9380   21.6760 H         1 SUB1        0.150
     43 H          -5.8180   -4.9570   22.8470 H         1 SUB1        0.150
     44 H          -4.0780   -6.3380   23.6200 H         1 SUB1        0.150
     45 H          -1.6600   -6.7850   23.8830 H         1 SUB1        0.150
     46 H          -0.0100   -5.3070   22.8100 H         1 SUB1        0.150
     47 H          -0.7580   -3.3600   21.4770 H         1 SUB1        0.150
     48 H          -2.9630    4.8780   21.5510 H         1 SUB1        0.000
     49 H          -3.0250    4.4700   18.9240 H         1 SUB1        0.000
     50 H          -1.2440    4.6430   19.0740 H         1 SUB1        0.000
     51 H          -3.9060    6.4230   21.0060 H         1 SUB1        0.150
     52 H          -0.7850    6.7000   18.1120 H         1 SUB1        0.150
     53 H          -4.0960    8.8730   21.0560 H         1 SUB1        0.150
     54 H          -0.9900    9.1470   18.1500 H         1 SUB1        0.150
     55 H          -2.1530    2.2510   20.3940 H         1 SUB1        0.370
     56 H          -1.0330   11.6330   20.6090 H         1 SUB1        0.669
     57 H          -0.9390   11.5170   18.8320 H         1 SUB1        0.669
     58 H          -4.4160   11.0500   20.4620 H         1 SUB1        0.669
     59 H          -4.0080   11.8080   18.9000 H         1 SUB1        0.669
     60 H          -2.8340    4.7800   23.1670 H         1 SUB1        0.000
     61 H          -1.7440    5.6670   24.2860 H         1 SUB1        0.000
     62 H          -2.1030    2.6250   24.2510 H         1 SUB1        0.000
     63 H          -2.9300    3.7380   25.3930 H         1 SUB1        0.000
     64 H          -0.8320    2.8220   26.3970 H         1 SUB1        0.000
     65 H          -0.7060    4.5960   26.1510 H         1 SUB1        0.000
     66 H           0.3210    2.4130   24.2640 H         1 SUB1        0.000
     67 H           1.3270    3.4620   25.3190 H         1 SUB1        0.000
     68 H           0.6660    5.4400   24.0350 H         1 SUB1        0.000
     69 H           1.3130    4.1860   22.9230 H         1 SUB1        0.000
@<TRIPOS>BOND
     1   15   14 1  
     2   16   15 1  
     3   16   17 2  
     4    1    2 2  
     5    1    3 2  
     6    1    5 1  
     7   14    1 1  
     8    5    6 ar 
     9    6    7 ar 
    10    7   13 ar 
    11    8    9 ar 
    12   13    8 ar 
    13    9   10 ar 
    14   11   10 ar 
    15   12   11 ar 
    16   13   12 ar 
    17   19   18 1  
    18   18   28 2  
    19   18   32 am 
    20   19   20 1  
    21   29   19 1  
    22   20   21 1  
    23   21   22 ar 
    24   22   24 ar 
    25   21   23 ar 
    26   23   25 ar 
    27   24   26 ar 
    28   25   26 ar 
    29   26   27 1  
    30   27   30 ar 
    31   27   31 ar 
    32   29   16 am 
    33   32   33 1  
    34   32   37 1  
    35   33   34 1  
    36   34   35 1  
    37   35   36 1  
    38   36   37 1  
    39   12    4 ar 
    40    5    4 ar 
    41   14   38 1  
    42   15   39 1  
    43   15   40 1  
    44    4   41 1  
    45    6   42 1  
    46    7   43 1  
    47    8   44 1  
    48    9   45 1  
    49   10   46 1  
    50   11   47 1  
    51   19   48 1  
    52   20   49 1  
    53   20   50 1  
    54   22   51 1  
    55   23   52 1  
    56   24   53 1  
    57   25   54 1  
    58   29   55 1  
    59   30   56 1  
    60   30   57 1  
    61   31   58 1  
    62   31   59 1  
    63   33   60 1  
    64   33   61 1  
    65   34   62 1  
    66   34   63 1  
    67   35   64 1  
    68   35   65 1  
    69   36   66 1  
    70   36   67 1  
    71   37   68 1  
    72   37   69 1  
@<TRIPOS>SUBSTRUCTURE
     1 SUB1        1 GROUP

### 
### Created by X-TOOL on Tue Dec  2 13:04:55 2003
### 

@<TRIPOS>MOLECULE
1ppc-ligand.1ppc.066
   69    72     1     0     0
SMALL
MMFF94_CHARGES


@<TRIPOS>ATOM
      1 S           3.6640   -2.5300   19.0370 S.o2      1 SUB1        1.447
      2 O1          3.6440   -3.3910   17.7670 O.2       1 SUB1       -0.650
      3 O2          4.2490   -1.1570   18.7200 O.2       1 SUB1       -0.650
      4 C1          4.8430   -4.7550   20.2470 C.ar      1 SUB1       -0.150
      5 C2          4.6250   -3.4020   20.2750 C.ar      1 SUB1       -0.009
      6 C3          5.1160   -2.6710   21.3210 C.ar      1 SUB1       -0.150
      7 C4          5.7680   -3.2980   22.3580 C.ar      1 SUB1       -0.150
      8 C5          6.6470   -5.2540   23.3630 C.ar      1 SUB1       -0.150
      9 C6          6.8930   -6.6140   23.3160 C.ar      1 SUB1       -0.150
     10 C7          6.4290   -7.3670   22.2530 C.ar      1 SUB1       -0.150
     11 C8          5.7200   -6.7690   21.2230 C.ar      1 SUB1       -0.150
     12 C9          5.5210   -5.4030   21.2580 C.ar      1 SUB1        0.000
     13 C10         5.9710   -4.6580   22.3190 C.ar      1 SUB1        0.000
     14 N           2.1180   -2.1600   19.5140 N.am      1 SUB1       -0.914
     15 CA          2.0630   -1.3020   20.6730 C.3       1 SUB1        0.417
     16 C           0.6970   -0.6710   20.9150 C.2       1 SUB1        0.569
     17 O          -0.3360   -1.3420   21.0290 O.2       1 SUB1       -0.570
     18 C           0.2090    2.7340   21.9780 C.2       1 SUB1        0.569
     19 CA         -0.3310    1.5960   21.1110 C.3       1 SUB1        0.361
     20 CB         -0.8920    2.1490   19.7910 C.3       1 SUB1        0.144
     21 CG         -0.6780    1.2190   18.6150 C.ar      1 SUB1       -0.144
     22 CD1        -1.6860    0.3660   18.2010 C.ar      1 SUB1       -0.150
     23 CD2         0.4940    1.2860   17.8990 C.ar      1 SUB1       -0.150
     24 CE1        -1.5100   -0.4450   17.0960 C.ar      1 SUB1       -0.150
     25 CE2         0.6650    0.4700   16.7990 C.ar      1 SUB1       -0.150
     26 CZ         -0.3380   -0.3900   16.3680 C.ar      1 SUB1       -0.022
     27 CF         -0.1570   -1.1540   15.2050 C.cat     1 SUB1        0.731
     28 O           0.7900    3.6940   21.4620 O.2       1 SUB1       -0.570
     29 N           0.7700    0.6710   20.8770 N.am      1 SUB1       -0.730
     30 NG1         0.9760   -1.8520   15.0070 N.pl3     1 SUB1       -1.192
     31 NG2        -1.1660   -1.2230   14.3290 N.pl3     1 SUB1       -1.192
     32 N1          0.0290    2.6800   23.3080 N.am      1 SUB1       -0.660
     33 C2         -0.8170    1.6900   23.9540 C.3       1 SUB1        0.300
     34 C3          0.0440    0.9430   24.9450 C.3       1 SUB1        0.000
     35 C4          0.4760    1.9330   26.0160 C.3       1 SUB1        0.000
     36 C5          1.2690    3.0290   25.3110 C.3       1 SUB1        0.000
     37 C6          0.4860    3.7230   24.2160 C.3       1 SUB1        0.300
     38 H           1.3040   -2.5000   19.0440 H         1 SUB1        0.420
     39 HA1         2.3290   -1.8980   21.5580 H         1 SUB1        0.000
     40 HA2         2.7970   -0.4940   20.5410 H         1 SUB1        0.000
     41 H           4.4730   -5.3310   19.4070 H         1 SUB1        0.150
     42 H           4.9910   -1.5950   21.3330 H         1 SUB1        0.150
     43 H           6.1210   -2.7200   23.2050 H         1 SUB1        0.150
     44 H           6.9810   -4.6650   24.2100 H         1 SUB1        0.150
     45 H           7.4510   -7.0920   24.1140 H         1 SUB1        0.150
     46 H           6.6210   -8.4340   22.2260 H         1 SUB1        0.150
     47 H           5.3290   -7.3640   20.4060 H         1 SUB1        0.150
     48 H          -1.1380    1.0740   21.6470 H         1 SUB1        0.000
     49 H          -0.3960    3.1060   19.5750 H         1 SUB1        0.000
     50 H          -1.9720    2.3160   19.9130 H         1 SUB1        0.000
     51 H          -2.6210    0.3330   18.7480 H         1 SUB1        0.150
     52 H           1.2770    1.9750   18.1950 H         1 SUB1        0.150
     53 H          -2.2970   -1.1280   16.7990 H         1 SUB1        0.150
     54 H           1.6040    0.5000   16.2580 H         1 SUB1        0.150
     55 H           1.6620    1.0720   20.6670 H         1 SUB1        0.370
     56 H           0.9890   -2.6360   14.3400 H         1 SUB1        0.669
     57 H           1.8320   -1.6010   15.5230 H         1 SUB1        0.669
     58 H          -1.0800   -0.7700   13.4070 H         1 SUB1        0.669
     59 H          -2.0290   -1.7280   14.5750 H         1 SUB1        0.669
     60 H          -1.2220    0.9940   23.2050 H         1 SUB1        0.000
     61 H          -1.6470    2.1890   24.4770 H         1 SUB1        0.000
     62 H           0.9280    0.5300   24.4370 H         1 SUB1        0.000
     63 H          -0.5330    0.1250   25.4010 H         1 SUB1        0.000
     64 H           1.1070    1.4310   26.7630 H         1 SUB1        0.000
     65 H          -0.4070    2.3640   26.5100 H         1 SUB1        0.000
     66 H           2.1680    2.5790   24.8650 H         1 SUB1        0.000
     67 H           1.5670    3.7810   26.0570 H         1 SUB1        0.000
     68 H          -0.3750    4.2570   24.6440 H         1 SUB1        0.000
     69 H           1.1310    4.4360   23.6810 H         1 SUB1        0.000
@<TRIPOS>BOND
     1   15   14 1  
     2   16   15 1  
     3   16   17 2  
     4    1    2 2  
     5    1    3 2  
     6    1    5 1  
     7   14    1 1  
     8    5    6 ar 
     9    6    7 ar 
    10    7   13 ar 
    11    8    9 ar 
    12   13    8 ar 
    13    9   10 ar 
    14   11   10 ar 
    15   12   11 ar 
    16   13   12 ar 
    17   19   18 1  
    18   18   28 2  
    19   18   32 am 
    20   19   20 1  
    21   29   19 1  
    22   20   21 1  
    23   21   22 ar 
    24   22   24 ar 
    25   21   23 ar 
    26   23   25 ar 
    27   24   26 ar 
    28   25   26 ar 
    29   26   27 1  
    30   27   30 ar 
    31   27   31 ar 
    32   29   16 am 
    33   32   33 1  
    34   32   37 1  
    35   33   34 1  
    36   34   35 1  
    37   35   36 1  
    38   36   37 1  
    39   12    4 ar 
    40    5    4 ar 
    41   14   38 1  
    42   15   39 1  
    43   15   40 1  
    44    4   41 1  
    45    6   42 1  
    46    7   43 1  
    47    8   44 1  
    48    9   45 1  
    49   10   46 1  
    50   11   47 1  
    51   19   48 1  
    52   20   49 1  
    53   20   50 1  
    54   22   51 1  
    55   23   52 1  
    56   24   53 1  
    57   25   54 1  
    58   29   55 1  
    59   30   56 1  
    60   30   57 1  
    61   31   58 1  
    62   31   59 1  
    63   33   60 1  
    64   33   61 1  
    65   34   62 1  
    66   34   63 1  
    67   35   64 1  
    68   35   65 1  
    69   36   66 1  
    70   36   67 1  
    71   37   68 1  
    72   37   69 1  
@<TRIPOS>SUBSTRUCTURE
     1 SUB1        1 GROUP

### 
### Created by X-TOOL on Tue Dec  2 13:04:55 2003
### 

@<TRIPOS>MOLECULE
1ppc-ligand.1ppc.067
   69    72     1     0     0
SMALL
MMFF94_CHARGES


@<TRIPOS>ATOM
      1 S           1.1030    0.5210   18.5730 S.o2      1 SUB1        1.447
      2 O1          2.5740    0.8740   18.3210 O.2       1 SUB1       -0.650
      3 O2          0.9410   -0.0330   19.9860 O.2       1 SUB1       -0.650
      4 C1          0.7740   -0.4640   15.9790 C.ar      1 SUB1       -0.150
      5 C2          0.6020   -0.6650   17.3240 C.ar      1 SUB1       -0.009
      6 C3         -0.0280   -1.8010   17.7510 C.ar      1 SUB1       -0.150
      7 C4         -0.5330   -2.6970   16.8370 C.ar      1 SUB1       -0.150
      8 C5         -0.8580   -3.4040   14.5990 C.ar      1 SUB1       -0.150
      9 C6         -0.6540   -3.2130   13.2450 C.ar      1 SUB1       -0.150
     10 C7          0.0050   -2.0840   12.7940 C.ar      1 SUB1       -0.150
     11 C8          0.4740   -1.1380   13.6910 C.ar      1 SUB1       -0.150
     12 C9          0.3060   -1.3620   15.0440 C.ar      1 SUB1        0.000
     13 C10        -0.3600   -2.4760   15.4900 C.ar      1 SUB1        0.000
     14 N           0.1720    1.8940   18.6170 N.am      1 SUB1       -0.914
     15 CA         -1.2180    1.6400   18.9090 C.3       1 SUB1        0.417
     16 C          -1.6500    2.0710   20.3060 C.2       1 SUB1        0.569
     17 O          -1.6070    1.3110   21.2800 O.2       1 SUB1       -0.570
     18 C          -1.4070    4.6710   22.1240 C.2       1 SUB1        0.569
     19 CA         -2.6350    4.0590   21.4500 C.3       1 SUB1        0.361
     20 CB         -3.6280    5.1610   21.0460 C.3       1 SUB1        0.144
     21 CG         -5.0750    4.7210   21.1350 C.ar      1 SUB1       -0.144
     22 CD1        -5.8420    5.0420   22.2400 C.ar      1 SUB1       -0.150
     23 CD2        -5.6560    4.0740   20.0690 C.ar      1 SUB1       -0.150
     24 CE1        -7.1760    4.6870   22.2980 C.ar      1 SUB1       -0.150
     25 CE2        -6.9880    3.7170   20.1350 C.ar      1 SUB1       -0.150
     26 CZ         -7.7730    4.0360   21.2370 C.ar      1 SUB1       -0.022
     27 CF         -9.1390    3.7210   21.2400 C.cat     1 SUB1        0.731
     28 O          -0.8780    5.6870   21.6600 O.2       1 SUB1       -0.570
     29 N          -2.1650    3.3130   20.2910 N.am      1 SUB1       -0.730
     30 NG1        -9.7180    3.1750   22.3260 N.pl3     1 SUB1       -1.192
     31 NG2        -9.8660    4.0370   20.1620 N.pl3     1 SUB1       -1.192
     32 N1         -0.9210    4.0970   23.2360 N.am      1 SUB1       -0.660
     33 C2         -1.6110    3.0310   23.9450 C.3       1 SUB1        0.300
     34 C3         -0.6700    1.8510   24.0050 C.3       1 SUB1        0.000
     35 C4          0.5220    2.2580   24.8570 C.3       1 SUB1        0.000
     36 C5          1.1750    3.4500   24.1630 C.3       1 SUB1        0.000
     37 C6          0.2300    4.6170   23.9630 C.3       1 SUB1        0.300
     38 H           0.5400    2.8100   18.4570 H         1 SUB1        0.420
     39 HA1        -1.8300    2.1830   18.1750 H         1 SUB1        0.000
     40 HA2        -1.4000    0.5600   18.8110 H         1 SUB1        0.000
     41 H           1.2930    0.4270   15.6420 H         1 SUB1        0.150
     42 H          -0.1300   -1.9960   18.8120 H         1 SUB1        0.150
     43 H          -1.0670   -3.5770   17.1790 H         1 SUB1        0.150
     44 H          -1.4020   -4.2710   14.9560 H         1 SUB1        0.150
     45 H          -1.0130   -3.9500   12.5350 H         1 SUB1        0.150
     46 H           0.1570   -1.9390   11.7310 H         1 SUB1        0.150
     47 H           0.9630   -0.2370   13.3380 H         1 SUB1        0.150
     48 H          -3.1340    3.3710   22.1490 H         1 SUB1        0.000
     49 H          -3.4160    5.4590   20.0090 H         1 SUB1        0.000
     50 H          -3.4840    6.0230   21.7130 H         1 SUB1        0.000
     51 H          -5.3920    5.5780   23.0690 H         1 SUB1        0.150
     52 H          -5.0730    3.8470   19.1830 H         1 SUB1        0.150
     53 H          -7.7580    4.9220   23.1820 H         1 SUB1        0.150
     54 H          -7.4320    3.1770   19.3070 H         1 SUB1        0.150
     55 H          -2.2320    3.7660   19.4020 H         1 SUB1        0.370
     56 H          -9.4680    2.2190   22.6170 H         1 SUB1        0.669
     57 H         -10.4120    3.7120   22.8650 H         1 SUB1        0.669
     58 H          -9.8340    4.9940   19.7810 H         1 SUB1        0.669
     59 H         -10.4580    3.3240   19.7130 H         1 SUB1        0.669
     60 H          -2.5290    2.7540   23.4070 H         1 SUB1        0.000
     61 H          -1.8680    3.3610   24.9630 H         1 SUB1        0.000
     62 H          -0.3350    1.5860   22.9920 H         1 SUB1        0.000
     63 H          -1.1790    0.9890   24.4600 H         1 SUB1        0.000
     64 H           1.2370    1.4260   24.9310 H         1 SUB1        0.000
     65 H           0.1880    2.5440   25.8640 H         1 SUB1        0.000
     66 H           1.5420    3.1240   23.1790 H         1 SUB1        0.000
     67 H           2.0240    3.7900   24.7760 H         1 SUB1        0.000
     68 H          -0.0870    5.0210   24.9360 H         1 SUB1        0.000
     69 H           0.7220    5.4080   23.3790 H         1 SUB1        0.000
@<TRIPOS>BOND
     1   15   14 1  
     2   16   15 1  
     3   16   17 2  
     4    1    2 2  
     5    1    3 2  
     6    1    5 1  
     7   14    1 1  
     8    5    6 ar 
     9    6    7 ar 
    10    7   13 ar 
    11    8    9 ar 
    12   13    8 ar 
    13    9   10 ar 
    14   11   10 ar 
    15   12   11 ar 
    16   13   12 ar 
    17   19   18 1  
    18   18   28 2  
    19   18   32 am 
    20   19   20 1  
    21   29   19 1  
    22   20   21 1  
    23   21   22 ar 
    24   22   24 ar 
    25   21   23 ar 
    26   23   25 ar 
    27   24   26 ar 
    28   25   26 ar 
    29   26   27 1  
    30   27   30 ar 
    31   27   31 ar 
    32   29   16 am 
    33   32   33 1  
    34   32   37 1  
    35   33   34 1  
    36   34   35 1  
    37   35   36 1  
    38   36   37 1  
    39   12    4 ar 
    40    5    4 ar 
    41   14   38 1  
    42   15   39 1  
    43   15   40 1  
    44    4   41 1  
    45    6   42 1  
    46    7   43 1  
    47    8   44 1  
    48    9   45 1  
    49   10   46 1  
    50   11   47 1  
    51   19   48 1  
    52   20   49 1  
    53   20   50 1  
    54   22   51 1  
    55   23   52 1  
    56   24   53 1  
    57   25   54 1  
    58   29   55 1  
    59   30   56 1  
    60   30   57 1  
    61   31   58 1  
    62   31   59 1  
    63   33   60 1  
    64   33   61 1  
    65   34   62 1  
    66   34   63 1  
    67   35   64 1  
    68   35   65 1  
    69   36   66 1  
    70   36   67 1  
    71   37   68 1  
    72   37   69 1  
@<TRIPOS>SUBSTRUCTURE
     1 SUB1        1 GROUP

### 
### Created by X-TOOL on Tue Dec  2 13:04:55 2003
### 

@<TRIPOS>MOLECULE
1ppc-ligand.1ppc.068
   69    72     1     0     0
SMALL
MMFF94_CHARGES


@<TRIPOS>ATOM
      1 S           0.7140    0.2970   19.2480 S.o2      1 SUB1        1.447
      2 O1          0.4050    1.2920   20.3740 O.2       1 SUB1       -0.650
      3 O2         -0.5030   -0.5880   18.9940 O.2       1 SUB1       -0.650
      4 C1          2.3020   -1.2040   20.9880 C.ar      1 SUB1       -0.150
      5 C2          2.1500   -0.6590   19.7400 C.ar      1 SUB1       -0.009
      6 C3          3.1570   -0.7970   18.8260 C.ar      1 SUB1       -0.150
      7 C4          4.3300   -1.4240   19.1780 C.ar      1 SUB1       -0.150
      8 C5          5.6500   -2.6020   20.7550 C.ar      1 SUB1       -0.150
      9 C6          5.7870   -3.1790   22.0040 C.ar      1 SUB1       -0.150
     10 C7          4.7690   -3.0740   22.9330 C.ar      1 SUB1       -0.150
     11 C8          3.6000   -2.3980   22.6230 C.ar      1 SUB1       -0.150
     12 C9          3.4540   -1.8660   21.3560 C.ar      1 SUB1        0.000
     13 C10         4.4710   -1.9590   20.4390 C.ar      1 SUB1        0.000
     14 N           0.8890    1.0900   17.8010 N.am      1 SUB1       -0.914
     15 CA          1.1250    0.2070   16.6840 C.3       1 SUB1        0.417
     16 C          -0.1300   -0.4800   16.1590 C.2       1 SUB1        0.569
     17 O          -1.2490    0.0430   16.2170 O.2       1 SUB1       -0.570
     18 C          -0.0450   -3.4770   14.1030 C.2       1 SUB1        0.569
     19 CA         -0.8080   -2.6580   15.1440 C.3       1 SUB1        0.361
     20 CB         -1.4350   -3.5840   16.1980 C.3       1 SUB1        0.144
     21 CG         -2.9470   -3.5060   16.2380 C.ar      1 SUB1       -0.144
     22 CD1        -3.5820   -2.5530   17.0140 C.ar      1 SUB1       -0.150
     23 CD2        -3.6920   -4.3300   15.4270 C.ar      1 SUB1       -0.150
     24 CE1        -4.9600   -2.4470   17.0100 C.ar      1 SUB1       -0.150
     25 CE2        -5.0690   -4.2220   15.4310 C.ar      1 SUB1       -0.150
     26 CZ         -5.7220   -3.2680   16.2030 C.ar      1 SUB1       -0.022
     27 CF         -7.1160   -3.1400   16.1290 C.cat     1 SUB1        0.731
     28 O           1.0630   -3.9540   14.3690 O.2       1 SUB1       -0.570
     29 N           0.1410   -1.7310   15.7450 N.am      1 SUB1       -0.730
     30 NG1        -7.6840   -1.9640   15.8030 N.pl3     1 SUB1       -1.192
     31 NG2        -7.8650   -4.2300   16.3280 N.pl3     1 SUB1       -1.192
     32 N1         -0.6040   -3.6800   12.8980 N.am      1 SUB1       -0.660
     33 C2         -1.9790   -3.3240   12.5920 C.3       1 SUB1        0.300
     34 C3         -1.9450   -2.3760   11.4170 C.3       1 SUB1        0.000
     35 C4         -1.4040   -3.1450   10.2220 C.3       1 SUB1        0.000
     36 C5          0.0000   -3.6120   10.5960 C.3       1 SUB1        0.000
     37 C6          0.0330   -4.4640   11.8480 C.3       1 SUB1        0.300
     38 H           0.8370    2.0850   17.7120 H         1 SUB1        0.420
     39 HA1         1.5650    0.7950   15.8650 H         1 SUB1        0.000
     40 HA2         1.8370   -0.5690   17.0010 H         1 SUB1        0.000
     41 H           1.4950   -1.1130   21.7060 H         1 SUB1        0.150
     42 H           3.0320   -0.4110   17.8220 H         1 SUB1        0.150
     43 H           5.1430   -1.4970   18.4640 H         1 SUB1        0.150
     44 H           6.4580   -2.6540   20.0340 H         1 SUB1        0.150
     45 H           6.6960   -3.7150   22.2560 H         1 SUB1        0.150
     46 H           4.8860   -3.5250   23.9120 H         1 SUB1        0.150
     47 H           2.8130   -2.2880   23.3610 H         1 SUB1        0.150
     48 H          -1.6110   -2.0900   14.6510 H         1 SUB1        0.000
     49 H          -1.0440   -3.3030   17.1870 H         1 SUB1        0.000
     50 H          -1.1440   -4.6200   15.9700 H         1 SUB1        0.000
     51 H          -2.9940   -1.8830   17.6320 H         1 SUB1        0.150
     52 H          -3.2030   -5.0580   14.7900 H         1 SUB1        0.150
     53 H          -5.4450   -1.7130   17.6430 H         1 SUB1        0.150
     54 H          -5.6540   -4.8970   14.8180 H         1 SUB1        0.150
     55 H           1.0800   -2.0540   15.8600 H         1 SUB1        0.370
     56 H          -7.0930   -1.1570   15.5560 H         1 SUB1        0.669
     57 H          -8.7090   -1.8710   15.7990 H         1 SUB1        0.669
     58 H          -8.7670   -4.3320   15.8390 H         1 SUB1        0.669
     59 H          -7.5410   -4.9680   16.9690 H         1 SUB1        0.669
     60 H          -2.4440   -2.8330   13.4600 H         1 SUB1        0.000
     61 H          -2.5530   -4.2270   12.3320 H         1 SUB1        0.000
     62 H          -1.2890   -1.5220   11.6430 H         1 SUB1        0.000
     63 H          -2.9600   -2.0110   11.2000 H         1 SUB1        0.000
     64 H          -1.3620   -2.4920    9.3380 H         1 SUB1        0.000
     65 H          -2.0460   -4.0120   10.0080 H         1 SUB1        0.000
     66 H           0.6310   -2.7270   10.7590 H         1 SUB1        0.000
     67 H           0.4060   -4.2030    9.7610 H         1 SUB1        0.000
     68 H          -0.5210   -5.4010   11.6850 H         1 SUB1        0.000
     69 H           1.0720   -4.6950   12.1230 H         1 SUB1        0.000
@<TRIPOS>BOND
     1   15   14 1  
     2   16   15 1  
     3   16   17 2  
     4    1    2 2  
     5    1    3 2  
     6    1    5 1  
     7   14    1 1  
     8    5    6 ar 
     9    6    7 ar 
    10    7   13 ar 
    11    8    9 ar 
    12   13    8 ar 
    13    9   10 ar 
    14   11   10 ar 
    15   12   11 ar 
    16   13   12 ar 
    17   19   18 1  
    18   18   28 2  
    19   18   32 am 
    20   19   20 1  
    21   29   19 1  
    22   20   21 1  
    23   21   22 ar 
    24   22   24 ar 
    25   21   23 ar 
    26   23   25 ar 
    27   24   26 ar 
    28   25   26 ar 
    29   26   27 1  
    30   27   30 ar 
    31   27   31 ar 
    32   29   16 am 
    33   32   33 1  
    34   32   37 1  
    35   33   34 1  
    36   34   35 1  
    37   35   36 1  
    38   36   37 1  
    39   12    4 ar 
    40    5    4 ar 
    41   14   38 1  
    42   15   39 1  
    43   15   40 1  
    44    4   41 1  
    45    6   42 1  
    46    7   43 1  
    47    8   44 1  
    48    9   45 1  
    49   10   46 1  
    50   11   47 1  
    51   19   48 1  
    52   20   49 1  
    53   20   50 1  
    54   22   51 1  
    55   23   52 1  
    56   24   53 1  
    57   25   54 1  
    58   29   55 1  
    59   30   56 1  
    60   30   57 1  
    61   31   58 1  
    62   31   59 1  
    63   33   60 1  
    64   33   61 1  
    65   34   62 1  
    66   34   63 1  
    67   35   64 1  
    68   35   65 1  
    69   36   66 1  
    70   36   67 1  
    71   37   68 1  
    72   37   69 1  
@<TRIPOS>SUBSTRUCTURE
     1 SUB1        1 GROUP

### 
### Created by X-TOOL on Tue Dec  2 13:04:55 2003
### 

@<TRIPOS>MOLECULE
1ppc-ligand.1ppc.069
   69    72     1     0     0
SMALL
MMFF94_CHARGES


@<TRIPOS>ATOM
      1 S          -2.5060    3.2580   22.4660 S.o2      1 SUB1        1.447
      2 O1         -3.9020    2.7450   22.0900 O.2       1 SUB1       -0.650
      3 O2         -2.5020    3.7260   23.9190 O.2       1 SUB1       -0.650
      4 C1         -2.7950    5.7530   21.2410 C.ar      1 SUB1       -0.150
      5 C2         -2.0860    4.5830   21.3320 C.ar      1 SUB1       -0.009
      6 C3         -1.0320    4.3770   20.4860 C.ar      1 SUB1       -0.150
      7 C4         -0.7280    5.3080   19.5190 C.ar      1 SUB1       -0.150
      8 C5         -1.1120    7.3980   18.4710 C.ar      1 SUB1       -0.150
      9 C6         -1.8080    8.5900   18.4040 C.ar      1 SUB1       -0.150
     10 C7         -2.8600    8.8300   19.2690 C.ar      1 SUB1       -0.150
     11 C8         -3.2230    7.8840   20.2140 C.ar      1 SUB1       -0.150
     12 C9         -2.4910    6.7160   20.3030 C.ar      1 SUB1        0.000
     13 C10        -1.4550    6.4740   19.4360 C.ar      1 SUB1        0.000
     14 N          -1.4130    2.0100   22.4870 N.am      1 SUB1       -0.914
     15 CA         -0.0870    2.4130   22.8900 C.3       1 SUB1        0.417
     16 C           0.6990    1.3280   23.6180 C.2       1 SUB1        0.569
     17 O           1.1530    1.4880   24.7580 O.2       1 SUB1       -0.570
     18 C           1.4300   -1.9460   22.0360 C.2       1 SUB1        0.569
     19 CA          1.5790   -0.9700   23.2030 C.3       1 SUB1        0.361
     20 CB          3.0650   -0.7300   23.5120 C.3       1 SUB1        0.144
     21 CG          3.4750   -1.2180   24.8870 C.ar      1 SUB1       -0.144
     22 CD1         3.7980   -0.3180   25.8860 C.ar      1 SUB1       -0.150
     23 CD2         3.4400   -2.5640   25.1680 C.ar      1 SUB1       -0.150
     24 CE1         4.1200   -0.7610   27.1540 C.ar      1 SUB1       -0.150
     25 CE2         3.7690   -3.0010   26.4360 C.ar      1 SUB1       -0.150
     26 CZ          4.0920   -2.1090   27.4520 C.ar      1 SUB1       -0.022
     27 CF          4.3510   -2.5830   28.7460 C.cat     1 SUB1        0.731
     28 O           0.7840   -2.9910   22.1710 O.2       1 SUB1       -0.570
     29 N           0.9060    0.2640   22.8230 N.am      1 SUB1       -0.730
     30 NG1         3.4540   -3.3500   29.3930 N.pl3     1 SUB1       -1.192
     31 NG2         5.5400   -2.3070   29.2960 N.pl3     1 SUB1       -1.192
     32 N1          1.9990   -1.6440   20.8570 N.am      1 SUB1       -0.660
     33 C2          2.5930   -0.3470   20.5730 C.3       1 SUB1        0.300
     34 C3          4.0330   -0.5890   20.1860 C.3       1 SUB1        0.000
     35 C4          4.0320   -1.3780   18.8860 C.3       1 SUB1        0.000
     36 C5          3.3060   -2.6910   19.1650 C.3       1 SUB1        0.000
     37 C6          1.8960   -2.4960   19.6810 C.3       1 SUB1        0.300
     38 H          -1.6500    1.0700   22.2440 H         1 SUB1        0.420
     39 HA1         0.4760    2.7010   21.9890 H         1 SUB1        0.000
     40 HA2        -0.1770    3.2810   23.5590 H         1 SUB1        0.000
     41 H          -3.6170    5.9250   21.9260 H         1 SUB1        0.150
     42 H          -0.4350    3.4780   20.5760 H         1 SUB1        0.150
     43 H           0.0830    5.1230   18.8240 H         1 SUB1        0.150
     44 H          -0.3070    7.1920   17.7750 H         1 SUB1        0.150
     45 H          -1.5290    9.3400   17.6710 H         1 SUB1        0.150
     46 H          -3.4050    9.7650   19.2070 H         1 SUB1        0.150
     47 H          -4.0680    8.0570   20.8720 H         1 SUB1        0.150
     48 H           1.0950   -1.3890   24.0980 H         1 SUB1        0.000
     49 H           3.2650    0.3500   23.4510 H         1 SUB1        0.000
     50 H           3.6690   -1.2570   22.7590 H         1 SUB1        0.000
     51 H           3.7970    0.7450   25.6720 H         1 SUB1        0.150
     52 H           3.1570   -3.2760   24.4010 H         1 SUB1        0.150
     53 H           4.3970   -0.0460   27.9200 H         1 SUB1        0.150
     54 H           3.7750   -4.0640   26.6440 H         1 SUB1        0.150
     55 H           0.5680    0.3260   21.8840 H         1 SUB1        0.370
     56 H           3.7550   -3.9420   30.1800 H         1 SUB1        0.669
     57 H           2.4670   -3.3460   29.1000 H         1 SUB1        0.669
     58 H           6.3260   -2.0060   28.7020 H         1 SUB1        0.669
     59 H           5.6680   -2.3950   30.3140 H         1 SUB1        0.669
     60 H           2.5450    0.2930   21.4670 H         1 SUB1        0.000
     61 H           2.0570    0.1390   19.7450 H         1 SUB1        0.000
     62 H           4.5410   -1.1650   20.9740 H         1 SUB1        0.000
     63 H           4.5500    0.3710   20.0420 H         1 SUB1        0.000
     64 H           5.0640   -1.5770   18.5630 H         1 SUB1        0.000
     65 H           3.5050   -0.8140   18.1020 H         1 SUB1        0.000
     66 H           3.8790   -3.2540   19.9160 H         1 SUB1        0.000
     67 H           3.2590   -3.2700   18.2300 H         1 SUB1        0.000
     68 H           1.2740   -2.0110   18.9140 H         1 SUB1        0.000
     69 H           1.4540   -3.4660   19.9530 H         1 SUB1        0.000
@<TRIPOS>BOND
     1   15   14 1  
     2   16   15 1  
     3   16   17 2  
     4    1    2 2  
     5    1    3 2  
     6    1    5 1  
     7   14    1 1  
     8    5    6 ar 
     9    6    7 ar 
    10    7   13 ar 
    11    8    9 ar 
    12   13    8 ar 
    13    9   10 ar 
    14   11   10 ar 
    15   12   11 ar 
    16   13   12 ar 
    17   19   18 1  
    18   18   28 2  
    19   18   32 am 
    20   19   20 1  
    21   29   19 1  
    22   20   21 1  
    23   21   22 ar 
    24   22   24 ar 
    25   21   23 ar 
    26   23   25 ar 
    27   24   26 ar 
    28   25   26 ar 
    29   26   27 1  
    30   27   30 ar 
    31   27   31 ar 
    32   29   16 am 
    33   32   33 1  
    34   32   37 1  
    35   33   34 1  
    36   34   35 1  
    37   35   36 1  
    38   36   37 1  
    39   12    4 ar 
    40    5    4 ar 
    41   14   38 1  
    42   15   39 1  
    43   15   40 1  
    44    4   41 1  
    45    6   42 1  
    46    7   43 1  
    47    8   44 1  
    48    9   45 1  
    49   10   46 1  
    50   11   47 1  
    51   19   48 1  
    52   20   49 1  
    53   20   50 1  
    54   22   51 1  
    55   23   52 1  
    56   24   53 1  
    57   25   54 1  
    58   29   55 1  
    59   30   56 1  
    60   30   57 1  
    61   31   58 1  
    62   31   59 1  
    63   33   60 1  
    64   33   61 1  
    65   34   62 1  
    66   34   63 1  
    67   35   64 1  
    68   35   65 1  
    69   36   66 1  
    70   36   67 1  
    71   37   68 1  
    72   37   69 1  
@<TRIPOS>SUBSTRUCTURE
     1 SUB1        1 GROUP

### 
### Created by X-TOOL on Tue Dec  2 13:04:55 2003
### 

@<TRIPOS>MOLECULE
1ppc-ligand.1ppc.070
   69    72     1     0     0
SMALL
MMFF94_CHARGES


@<TRIPOS>ATOM
      1 S          -2.7990    4.6490   23.6650 S.o2      1 SUB1        1.447
      2 O1         -3.1200    5.7110   24.7250 O.2       1 SUB1       -0.650
      3 O2         -1.7800    3.6580   24.2210 O.2       1 SUB1       -0.650
      4 C1         -2.8620    6.5140   21.5860 C.ar      1 SUB1       -0.150
      5 C2         -2.1860    5.4980   22.2080 C.ar      1 SUB1       -0.009
      6 C3         -1.0060    5.0600   21.6750 C.ar      1 SUB1       -0.150
      7 C4         -0.5370    5.5960   20.4970 C.ar      1 SUB1       -0.150
      8 C5         -0.7270    7.1420   18.7120 C.ar      1 SUB1       -0.150
      9 C6         -1.3950    8.1890   18.1040 C.ar      1 SUB1       -0.150
     10 C7         -2.5760    8.6650   18.6430 C.ar      1 SUB1       -0.150
     11 C8         -3.0990    8.1040   19.7980 C.ar      1 SUB1       -0.150
     12 C9         -2.3990    7.0910   20.4220 C.ar      1 SUB1        0.000
     13 C10        -1.2330    6.6100   19.8800 C.ar      1 SUB1        0.000
     14 N          -4.1210    3.6870   23.3840 N.am      1 SUB1       -0.914
     15 CA         -3.8720    2.6270   22.4380 C.3       1 SUB1        0.417
     16 C          -2.7990    1.6380   22.8780 C.2       1 SUB1        0.569
     17 O          -2.9420    0.8930   23.8550 O.2       1 SUB1       -0.570
     18 C           0.4520    1.3730   21.1110 C.2       1 SUB1        0.569
     19 CA         -0.4760    0.9670   22.2560 C.3       1 SUB1        0.361
     20 CB          0.2190    1.1810   23.6100 C.3       1 SUB1        0.144
     21 CG          1.1110    0.0250   24.0120 C.ar      1 SUB1       -0.144
     22 CD1         2.4850    0.1160   23.8760 C.ar      1 SUB1       -0.150
     23 CD2         0.5580   -1.0890   24.5990 C.ar      1 SUB1       -0.150
     24 CE1         3.3030   -0.9180   24.2920 C.ar      1 SUB1       -0.150
     25 CE2         1.3800   -2.1200   25.0070 C.ar      1 SUB1       -0.150
     26 CZ          2.7620   -2.0430   24.8810 C.ar      1 SUB1       -0.022
     27 CF          3.5710   -3.0780   25.3710 C.cat     1 SUB1        0.731
     28 O           0.7890    2.5530   20.9650 O.2       1 SUB1       -0.570
     29 N          -1.6820    1.7750   22.1420 N.am      1 SUB1       -0.730
     30 NG1         3.8010   -3.2090   26.6910 N.pl3     1 SUB1       -1.192
     31 NG2         4.0560   -3.9710   24.5000 N.pl3     1 SUB1       -1.192
     32 N1          0.9080    0.4250   20.2760 N.am      1 SUB1       -0.660
     33 C2          0.7180   -0.9970   20.5110 C.3       1 SUB1        0.300
     34 C3         -0.0090   -1.5570   19.3110 C.3       1 SUB1        0.000
     35 C4          0.9160   -1.4190   18.1110 C.3       1 SUB1        0.000
     36 C5          1.2000    0.0700   17.9390 C.3       1 SUB1        0.000
     37 C6          1.8130    0.7070   19.1700 C.3       1 SUB1        0.300
     38 H          -5.0060    3.8280   23.8290 H         1 SUB1        0.420
     39 HA1        -4.8100    2.0730   22.2840 H         1 SUB1        0.000
     40 HA2        -3.5540    3.0790   21.4870 H         1 SUB1        0.000
     41 H          -3.7870    6.8760   22.0200 H         1 SUB1        0.150
     42 H          -0.4370    4.2890   22.1810 H         1 SUB1        0.150
     43 H           0.3780    5.2180   20.0550 H         1 SUB1        0.150
     44 H           0.1830    6.7440   18.2760 H         1 SUB1        0.150
     45 H          -0.9920    8.6380   17.2030 H         1 SUB1        0.150
     46 H          -3.0970    9.4830   18.1590 H         1 SUB1        0.150
     47 H          -4.0410    8.4550   20.2040 H         1 SUB1        0.150
     48 H          -0.7390   -0.0970   22.1580 H         1 SUB1        0.000
     49 H          -0.5520    1.3130   24.3820 H         1 SUB1        0.000
     50 H           0.8330    2.0920   23.5480 H         1 SUB1        0.000
     51 H           2.9240    1.0060   23.4400 H         1 SUB1        0.150
     52 H          -0.5150   -1.1560   24.7410 H         1 SUB1        0.150
     53 H           4.3750   -0.8440   24.1550 H         1 SUB1        0.150
     54 H           0.9370   -3.0110   25.4370 H         1 SUB1        0.150
     55 H          -1.6790    2.5000   21.4520 H         1 SUB1        0.370
     56 H           3.9280   -2.3710   27.2770 H         1 SUB1        0.669
     57 H           3.8510   -4.1460   27.1150 H         1 SUB1        0.669
     58 H           3.9500   -3.8140   23.4870 H         1 SUB1        0.669
     59 H           4.5340   -4.8170   24.8420 H         1 SUB1        0.669
     60 H           0.1180   -1.1520   21.4200 H         1 SUB1        0.000
     61 H           1.6930   -1.4930   20.6270 H         1 SUB1        0.000
     62 H          -0.9360   -0.9920   19.1370 H         1 SUB1        0.000
     63 H          -0.2500   -2.6170   19.4780 H         1 SUB1        0.000
     64 H           0.4280   -1.8170   17.2090 H         1 SUB1        0.000
     65 H           1.8530   -1.9650   18.2910 H         1 SUB1        0.000
     66 H           0.2540    0.5830   17.7150 H         1 SUB1        0.000
     67 H           1.8960    0.1990   17.0970 H         1 SUB1        0.000
     68 H           2.8030    0.2720   19.3700 H         1 SUB1        0.000
     69 H           1.9110    1.7920   19.0270 H         1 SUB1        0.000
@<TRIPOS>BOND
     1   15   14 1  
     2   16   15 1  
     3   16   17 2  
     4    1    2 2  
     5    1    3 2  
     6    1    5 1  
     7   14    1 1  
     8    5    6 ar 
     9    6    7 ar 
    10    7   13 ar 
    11    8    9 ar 
    12   13    8 ar 
    13    9   10 ar 
    14   11   10 ar 
    15   12   11 ar 
    16   13   12 ar 
    17   19   18 1  
    18   18   28 2  
    19   18   32 am 
    20   19   20 1  
    21   29   19 1  
    22   20   21 1  
    23   21   22 ar 
    24   22   24 ar 
    25   21   23 ar 
    26   23   25 ar 
    27   24   26 ar 
    28   25   26 ar 
    29   26   27 1  
    30   27   30 ar 
    31   27   31 ar 
    32   29   16 am 
    33   32   33 1  
    34   32   37 1  
    35   33   34 1  
    36   34   35 1  
    37   35   36 1  
    38   36   37 1  
    39   12    4 ar 
    40    5    4 ar 
    41   14   38 1  
    42   15   39 1  
    43   15   40 1  
    44    4   41 1  
    45    6   42 1  
    46    7   43 1  
    47    8   44 1  
    48    9   45 1  
    49   10   46 1  
    50   11   47 1  
    51   19   48 1  
    52   20   49 1  
    53   20   50 1  
    54   22   51 1  
    55   23   52 1  
    56   24   53 1  
    57   25   54 1  
    58   29   55 1  
    59   30   56 1  
    60   30   57 1  
    61   31   58 1  
    62   31   59 1  
    63   33   60 1  
    64   33   61 1  
    65   34   62 1  
    66   34   63 1  
    67   35   64 1  
    68   35   65 1  
    69   36   66 1  
    70   36   67 1  
    71   37   68 1  
    72   37   69 1  
@<TRIPOS>SUBSTRUCTURE
     1 SUB1        1 GROUP

### 
### Created by X-TOOL on Tue Dec  2 13:04:55 2003
### 

@<TRIPOS>MOLECULE
1ppc-ligand.1ppc.071
   69    72     1     0     0
SMALL
MMFF94_CHARGES


@<TRIPOS>ATOM
      1 S          -6.1280    2.5090   20.6110 S.o2      1 SUB1        1.447
      2 O1         -7.5290    2.7810   20.0480 O.2       1 SUB1       -0.650
      3 O2         -5.8820    1.0050   20.6780 O.2       1 SUB1       -0.650
      4 C1         -6.0330    2.5750   23.4020 C.ar      1 SUB1       -0.150
      5 C2         -6.0280    3.2810   22.2270 C.ar      1 SUB1       -0.009
      6 C3         -5.9960    4.6470   22.2720 C.ar      1 SUB1       -0.150
      7 C4         -6.0290    5.3010   23.4820 C.ar      1 SUB1       -0.150
      8 C5         -6.0540    5.2620   25.8510 C.ar      1 SUB1       -0.150
      9 C6         -6.0270    4.5470   27.0340 C.ar      1 SUB1       -0.150
     10 C7         -6.0310    3.1640   27.0100 C.ar      1 SUB1       -0.150
     11 C8         -6.0550    2.4810   25.8040 C.ar      1 SUB1       -0.150
     12 C9         -6.0340    3.2050   24.6280 C.ar      1 SUB1        0.000
     13 C10        -6.0430    4.5780   24.6530 C.ar      1 SUB1        0.000
     14 N          -4.9630    3.0160   19.5430 N.am      1 SUB1       -0.914
     15 CA         -3.6170    2.7380   19.9840 C.3       1 SUB1        0.417
     16 C          -2.7820    3.9830   20.2570 C.2       1 SUB1        0.569
     17 O          -2.0310    4.4800   19.4090 O.2       1 SUB1       -0.570
     18 C          -2.9730    6.7750   21.5530 C.2       1 SUB1        0.569
     19 CA         -2.2770    5.5460   22.1370 C.3       1 SUB1        0.361
     20 CB         -2.4080    5.5340   23.6680 C.3       1 SUB1        0.144
     21 CG         -1.4350    4.5890   24.3430 C.ar      1 SUB1       -0.144
     22 CD1        -0.2580    4.2250   23.7150 C.ar      1 SUB1       -0.150
     23 CD2        -1.6820    4.1610   25.6270 C.ar      1 SUB1       -0.150
     24 CE1         0.6540    3.4050   24.3520 C.ar      1 SUB1       -0.150
     25 CE2        -0.7690    3.3390   26.2560 C.ar      1 SUB1       -0.150
     26 CZ          0.4190    2.9660   25.6400 C.ar      1 SUB1       -0.022
     27 CF          1.3560    2.1870   26.3340 C.cat     1 SUB1        0.731
     28 O          -4.1170    7.0770   21.9100 O.2       1 SUB1       -0.570
     29 N          -2.8980    4.3720   21.5390 N.am      1 SUB1       -0.730
     30 NG1         0.9580    1.2550   27.2200 N.pl3     1 SUB1       -1.192
     31 NG2         2.6530    2.3490   26.0470 N.pl3     1 SUB1       -1.192
     32 N1         -2.3170    7.5300   20.6560 N.am      1 SUB1       -0.660
     33 C2         -0.9070    7.3510   20.3490 C.3       1 SUB1        0.300
     34 C3         -0.8020    7.0900   18.8650 C.3       1 SUB1        0.000
     35 C4         -1.2630    8.3480   18.1450 C.3       1 SUB1        0.000
     36 C5         -2.7100    8.5920   18.5620 C.3       1 SUB1        0.000
     37 C6         -2.8850    8.7310   20.0600 C.3       1 SUB1        0.300
     38 H          -5.1730    3.4700   18.6780 H         1 SUB1        0.420
     39 HA1        -3.6720    2.1480   20.9110 H         1 SUB1        0.000
     40 HA2        -3.1130    2.1490   19.2040 H         1 SUB1        0.000
     41 H          -6.0380    1.4920   23.3660 H         1 SUB1        0.150
     42 H          -5.9440    5.2170   21.3510 H         1 SUB1        0.150
     43 H          -6.0440    6.3850   23.5130 H         1 SUB1        0.150
     44 H          -6.0830    6.3450   25.8640 H         1 SUB1        0.150
     45 H          -6.0030    5.0710   27.9830 H         1 SUB1        0.150
     46 H          -6.0160    2.6110   27.9420 H         1 SUB1        0.150
     47 H          -6.0910    1.3980   25.7850 H         1 SUB1        0.150
     48 H          -1.2080    5.5670   21.8740 H         1 SUB1        0.000
     49 H          -3.4310    5.2270   23.9290 H         1 SUB1        0.000
     50 H          -2.2240    6.5510   24.0430 H         1 SUB1        0.000
     51 H          -0.0490    4.5850   22.7140 H         1 SUB1        0.150
     52 H          -2.5860    4.4680   26.1410 H         1 SUB1        0.150
     53 H           1.5600    3.1060   23.8370 H         1 SUB1        0.150
     54 H          -0.9840    2.9750   27.2540 H         1 SUB1        0.150
     55 H          -3.4620    3.8030   22.1370 H         1 SUB1        0.370
     56 H           1.4310    1.1750   28.1310 H         1 SUB1        0.669
     57 H           0.1820    0.6210   26.9850 H         1 SUB1        0.669
     58 H           3.3470    1.6730   26.3960 H         1 SUB1        0.669
     59 H           2.9580    3.1510   25.4770 H         1 SUB1        0.669
     60 H          -0.5050    6.4960   20.9120 H         1 SUB1        0.000
     61 H          -0.3460    8.2600   20.6130 H         1 SUB1        0.000
     62 H          -1.4450    6.2420   18.5870 H         1 SUB1        0.000
     63 H           0.2400    6.8650   18.5960 H         1 SUB1        0.000
     64 H          -1.2020    8.2050   17.0560 H         1 SUB1        0.000
     65 H          -0.6360    9.2030   18.4380 H         1 SUB1        0.000
     66 H          -3.3210    7.7460   18.2160 H         1 SUB1        0.000
     67 H          -3.0620    9.5180   18.0820 H         1 SUB1        0.000
     68 H          -2.3540    9.6230   20.4230 H         1 SUB1        0.000
     69 H          -3.9520    8.8120   20.3120 H         1 SUB1        0.000
@<TRIPOS>BOND
     1   15   14 1  
     2   16   15 1  
     3   16   17 2  
     4    1    2 2  
     5    1    3 2  
     6    1    5 1  
     7   14    1 1  
     8    5    6 ar 
     9    6    7 ar 
    10    7   13 ar 
    11    8    9 ar 
    12   13    8 ar 
    13    9   10 ar 
    14   11   10 ar 
    15   12   11 ar 
    16   13   12 ar 
    17   19   18 1  
    18   18   28 2  
    19   18   32 am 
    20   19   20 1  
    21   29   19 1  
    22   20   21 1  
    23   21   22 ar 
    24   22   24 ar 
    25   21   23 ar 
    26   23   25 ar 
    27   24   26 ar 
    28   25   26 ar 
    29   26   27 1  
    30   27   30 ar 
    31   27   31 ar 
    32   29   16 am 
    33   32   33 1  
    34   32   37 1  
    35   33   34 1  
    36   34   35 1  
    37   35   36 1  
    38   36   37 1  
    39   12    4 ar 
    40    5    4 ar 
    41   14   38 1  
    42   15   39 1  
    43   15   40 1  
    44    4   41 1  
    45    6   42 1  
    46    7   43 1  
    47    8   44 1  
    48    9   45 1  
    49   10   46 1  
    50   11   47 1  
    51   19   48 1  
    52   20   49 1  
    53   20   50 1  
    54   22   51 1  
    55   23   52 1  
    56   24   53 1  
    57   25   54 1  
    58   29   55 1  
    59   30   56 1  
    60   30   57 1  
    61   31   58 1  
    62   31   59 1  
    63   33   60 1  
    64   33   61 1  
    65   34   62 1  
    66   34   63 1  
    67   35   64 1  
    68   35   65 1  
    69   36   66 1  
    70   36   67 1  
    71   37   68 1  
    72   37   69 1  
@<TRIPOS>SUBSTRUCTURE
     1 SUB1        1 GROUP

### 
### Created by X-TOOL on Tue Dec  2 13:04:55 2003
### 

@<TRIPOS>MOLECULE
1ppc-ligand.1ppc.072
   69    72     1     0     0
SMALL
MMFF94_CHARGES


@<TRIPOS>ATOM
      1 S          -0.4650    3.2800   26.0600 S.o2      1 SUB1        1.447
      2 O1          0.8910    2.5850   26.2390 O.2       1 SUB1       -0.650
      3 O2         -0.3760    4.3020   24.9300 O.2       1 SUB1       -0.650
      4 C1         -1.2100    5.3710   27.7560 C.ar      1 SUB1       -0.150
      5 C2         -0.9020    4.0420   27.6240 C.ar      1 SUB1       -0.009
      6 C3         -0.8710    3.2520   28.7390 C.ar      1 SUB1       -0.150
      7 C4         -1.0890    3.8010   29.9820 C.ar      1 SUB1       -0.150
      8 C5         -1.6230    5.6550   31.3560 C.ar      1 SUB1       -0.150
      9 C6         -1.9650    6.9890   31.4830 C.ar      1 SUB1       -0.150
     10 C7         -2.0290    7.7990   30.3640 C.ar      1 SUB1       -0.150
     11 C8         -1.7590    7.2830   29.1060 C.ar      1 SUB1       -0.150
     12 C9         -1.4640    5.9390   28.9860 C.ar      1 SUB1        0.000
     13 C10        -1.3880    5.1390   30.0990 C.ar      1 SUB1        0.000
     14 N          -1.5970    2.2100   25.4870 N.am      1 SUB1       -0.914
     15 CA         -2.8850    2.8110   25.2390 C.3       1 SUB1        0.417
     16 C          -3.3250    2.7620   23.7810 C.2       1 SUB1        0.569
     17 O          -4.3280    2.1390   23.4090 O.2       1 SUB1       -0.570
     18 C          -3.5510    4.6960   21.3130 C.2       1 SUB1        0.569
     19 CA         -2.5540    3.5600   21.5450 C.3       1 SUB1        0.361
     20 CB         -1.1980    3.9000   20.9050 C.3       1 SUB1        0.144
     21 CG         -0.4820    2.6880   20.3460 C.ar      1 SUB1       -0.144
     22 CD1        -0.7090    2.2740   19.0450 C.ar      1 SUB1       -0.150
     23 CD2         0.4680    2.0470   21.1070 C.ar      1 SUB1       -0.150
     24 CE1        -0.0170    1.2010   18.5180 C.ar      1 SUB1       -0.150
     25 CE2         1.1520    0.9730   20.5770 C.ar      1 SUB1       -0.150
     26 CZ          0.9380    0.5460   19.2710 C.ar      1 SUB1       -0.022
     27 CF          1.7010   -0.5040   18.7410 C.cat     1 SUB1        0.731
     28 O          -3.3020    5.8400   21.7100 O.2       1 SUB1       -0.570
     29 N          -2.4340    3.3770   22.9850 N.am      1 SUB1       -0.730
     30 NG1         3.0400   -0.4050   18.6480 N.pl3     1 SUB1       -1.192
     31 NG2         1.0710   -1.6310   18.3890 N.pl3     1 SUB1       -1.192
     32 N1         -4.6950    4.4350   20.6600 N.am      1 SUB1       -0.660
     33 C2         -4.9560    3.1700   19.9930 C.3       1 SUB1        0.300
     34 C3         -6.2190    2.5990   20.5930 C.3       1 SUB1        0.000
     35 C4         -7.3610    3.5390   20.2360 C.3       1 SUB1        0.000
     36 C5         -7.0230    4.8970   20.8460 C.3       1 SUB1        0.000
     37 C6         -5.6960    5.4520   20.3710 C.3       1 SUB1        0.300
     38 H          -1.4050    1.2420   25.3280 H         1 SUB1        0.420
     39 HA1        -3.6360    2.2820   25.8440 H         1 SUB1        0.000
     40 HA2        -2.8410    3.8650   25.5500 H         1 SUB1        0.000
     41 H          -1.2550    5.9930   26.8690 H         1 SUB1        0.150
     42 H          -0.6740    2.1910   28.6450 H         1 SUB1        0.150
     43 H          -1.0240    3.1800   30.8680 H         1 SUB1        0.150
     44 H          -1.5410    5.0240   32.2340 H         1 SUB1        0.150
     45 H          -2.1840    7.4020   32.4620 H         1 SUB1        0.150
     46 H          -2.2930    8.8440   30.4710 H         1 SUB1        0.150
     47 H          -1.7770    7.9240   28.2320 H         1 SUB1        0.150
     48 H          -2.9370    2.6350   21.0900 H         1 SUB1        0.000
     49 H          -0.5570    4.3630   21.6690 H         1 SUB1        0.000
     50 H          -1.3670    4.6150   20.0860 H         1 SUB1        0.000
     51 H          -1.4370    2.7970   18.4350 H         1 SUB1        0.150
     52 H           0.6770    2.3840   22.1160 H         1 SUB1        0.150
     53 H          -0.2250    0.8710   17.5070 H         1 SUB1        0.150
     54 H           1.8740    0.4490   21.1920 H         1 SUB1        0.150
     55 H          -1.6120    3.7430   23.4210 H         1 SUB1        0.370
     56 H           3.6140   -0.3580   19.5020 H         1 SUB1        0.669
     57 H           3.4910   -0.3760   17.7220 H         1 SUB1        0.669
     58 H           0.1630   -1.5850   17.9050 H         1 SUB1        0.669
     59 H           1.4940   -2.5450   18.6040 H         1 SUB1        0.669
     60 H          -4.1160    2.4780   20.1550 H         1 SUB1        0.000
     61 H          -5.0920    3.3340   18.9130 H         1 SUB1        0.000
     62 H          -6.1170    2.5300   21.6860 H         1 SUB1        0.000
     63 H          -6.4140    1.5990   20.1780 H         1 SUB1        0.000
     64 H          -8.3060    3.1620   20.6520 H         1 SUB1        0.000
     65 H          -7.4510    3.6270   19.1440 H         1 SUB1        0.000
     66 H          -6.9860    4.7890   21.9400 H         1 SUB1        0.000
     67 H          -7.8170    5.6090   20.5750 H         1 SUB1        0.000
     68 H          -5.7330    5.6520   19.2900 H         1 SUB1        0.000
     69 H          -5.4600    6.3820   20.9080 H         1 SUB1        0.000
@<TRIPOS>BOND
     1   15   14 1  
     2   16   15 1  
     3   16   17 2  
     4    1    2 2  
     5    1    3 2  
     6    1    5 1  
     7   14    1 1  
     8    5    6 ar 
     9    6    7 ar 
    10    7   13 ar 
    11    8    9 ar 
    12   13    8 ar 
    13    9   10 ar 
    14   11   10 ar 
    15   12   11 ar 
    16   13   12 ar 
    17   19   18 1  
    18   18   28 2  
    19   18   32 am 
    20   19   20 1  
    21   29   19 1  
    22   20   21 1  
    23   21   22 ar 
    24   22   24 ar 
    25   21   23 ar 
    26   23   25 ar 
    27   24   26 ar 
    28   25   26 ar 
    29   26   27 1  
    30   27   30 ar 
    31   27   31 ar 
    32   29   16 am 
    33   32   33 1  
    34   32   37 1  
    35   33   34 1  
    36   34   35 1  
    37   35   36 1  
    38   36   37 1  
    39   12    4 ar 
    40    5    4 ar 
    41   14   38 1  
    42   15   39 1  
    43   15   40 1  
    44    4   41 1  
    45    6   42 1  
    46    7   43 1  
    47    8   44 1  
    48    9   45 1  
    49   10   46 1  
    50   11   47 1  
    51   19   48 1  
    52   20   49 1  
    53   20   50 1  
    54   22   51 1  
    55   23   52 1  
    56   24   53 1  
    57   25   54 1  
    58   29   55 1  
    59   30   56 1  
    60   30   57 1  
    61   31   58 1  
    62   31   59 1  
    63   33   60 1  
    64   33   61 1  
    65   34   62 1  
    66   34   63 1  
    67   35   64 1  
    68   35   65 1  
    69   36   66 1  
    70   36   67 1  
    71   37   68 1  
    72   37   69 1  
@<TRIPOS>SUBSTRUCTURE
     1 SUB1        1 GROUP

### 
### Created by X-TOOL on Tue Dec  2 13:04:55 2003
### 

@<TRIPOS>MOLECULE
1ppc-ligand.1ppc.073
   69    72     1     0     0
SMALL
MMFF94_CHARGES


@<TRIPOS>ATOM
      1 S          -1.6300    3.4700   19.7940 S.o2      1 SUB1        1.447
      2 O1         -0.7230    3.0470   18.6320 O.2       1 SUB1       -0.650
      3 O2         -2.9950    2.8030   19.6520 O.2       1 SUB1       -0.650
      4 C1         -2.9410    5.9370   19.8100 C.ar      1 SUB1       -0.150
      5 C2         -1.7500    5.2600   19.7720 C.ar      1 SUB1       -0.009
      6 C3         -0.5850    5.9670   19.6600 C.ar      1 SUB1       -0.150
      7 C4         -0.6170    7.3360   19.5270 C.ar      1 SUB1       -0.150
      8 C5         -1.8200    9.3760   19.4460 C.ar      1 SUB1       -0.150
      9 C6         -3.0210   10.0590   19.5160 C.ar      1 SUB1       -0.150
     10 C7         -4.2070    9.3630   19.6580 C.ar      1 SUB1       -0.150
     11 C8         -4.2070    7.9790   19.7360 C.ar      1 SUB1       -0.150
     12 C9         -2.9990    7.3110   19.7110 C.ar      1 SUB1        0.000
     13 C10        -1.8220    8.0010   19.5580 C.ar      1 SUB1        0.000
     14 N          -1.0720    2.8450   21.2260 N.am      1 SUB1       -0.914
     15 CA         -1.9130    3.1560   22.3580 C.3       1 SUB1        0.417
     16 C          -2.5450    1.9370   23.0180 C.2       1 SUB1        0.569
     17 O          -3.4290    2.0300   23.8780 O.2       1 SUB1       -0.570
     18 C          -3.0190   -1.1900   21.8210 C.2       1 SUB1        0.569
     19 CA         -2.3120   -0.5480   23.0150 C.3       1 SUB1        0.361
     20 CB         -1.0820   -1.3770   23.4170 C.3       1 SUB1        0.144
     21 CG          0.0460   -1.2980   22.4090 C.ar      1 SUB1       -0.144
     22 CD1         0.1060   -2.1860   21.3490 C.ar      1 SUB1       -0.150
     23 CD2         0.9680   -0.2810   22.4970 C.ar      1 SUB1       -0.150
     24 CE1         1.1040   -2.0810   20.3990 C.ar      1 SUB1       -0.150
     25 CE2         1.9660   -0.1850   21.5480 C.ar      1 SUB1       -0.150
     26 CZ          2.0380   -1.0670   20.4760 C.ar      1 SUB1       -0.022
     27 CF          3.0230   -0.8970   19.4920 C.cat     1 SUB1        0.731
     28 O          -2.7950   -0.7930   20.6720 O.2       1 SUB1       -0.570
     29 N          -1.9400    0.8040   22.6220 N.am      1 SUB1       -0.730
     30 NG1         2.6970   -0.8810   18.1860 N.pl3     1 SUB1       -1.192
     31 NG2         4.2840   -0.6870   19.8860 N.pl3     1 SUB1       -1.192
     32 N1         -3.8750   -2.2020   22.0380 N.am      1 SUB1       -0.660
     33 C2         -4.0270   -2.8490   23.3310 C.3       1 SUB1        0.300
     34 C3         -5.4790   -2.7240   23.7260 C.3       1 SUB1        0.000
     35 C4         -6.2970   -3.5240   22.7250 C.3       1 SUB1        0.000
     36 C5         -6.0430   -2.9080   21.3520 C.3       1 SUB1        0.000
     37 C6         -4.5790   -2.8930   20.9660 C.3       1 SUB1        0.300
     38 H          -0.2340    2.3040   21.2990 H         1 SUB1        0.420
     39 HA1        -1.3010    3.6780   23.1090 H         1 SUB1        0.000
     40 HA2        -2.7200    3.8210   22.0160 H         1 SUB1        0.000
     41 H          -3.8620    5.3780   19.9200 H         1 SUB1        0.150
     42 H           0.3660    5.4480   19.6750 H         1 SUB1        0.150
     43 H           0.3060    7.8910   19.3980 H         1 SUB1        0.150
     44 H          -0.8900    9.9140   19.3040 H         1 SUB1        0.150
     45 H          -3.0310   11.1420   19.4610 H         1 SUB1        0.150
     46 H          -5.1450    9.9050   19.7070 H         1 SUB1        0.150
     47 H          -5.1390    7.4320   19.8150 H         1 SUB1        0.150
     48 H          -3.0030   -0.5020   23.8700 H         1 SUB1        0.000
     49 H          -1.3870   -2.4280   23.5190 H         1 SUB1        0.000
     50 H          -0.7120   -1.0070   24.3850 H         1 SUB1        0.000
     51 H          -0.6380   -2.9700   21.2630 H         1 SUB1        0.150
     52 H           0.9100    0.4400   23.3050 H         1 SUB1        0.150
     53 H           1.1540   -2.8000   19.5900 H         1 SUB1        0.150
     54 H           2.7110    0.5960   21.6410 H         1 SUB1        0.150
     55 H          -1.1630    0.8970   21.9990 H         1 SUB1        0.370
     56 H           2.8870   -0.0430   17.6180 H         1 SUB1        0.669
     57 H           2.2590   -1.7070   17.7550 H         1 SUB1        0.669
     58 H           4.9910   -0.3710   19.2070 H         1 SUB1        0.669
     59 H           4.5490   -0.8420   20.8690 H         1 SUB1        0.669
     60 H          -3.3880   -2.3530   24.0770 H         1 SUB1        0.000
     61 H          -3.7460   -3.9100   23.2560 H         1 SUB1        0.000
     62 H          -5.7850   -1.6670   23.7020 H         1 SUB1        0.000
     63 H          -5.6280   -3.1250   24.7390 H         1 SUB1        0.000
     64 H          -7.3660   -3.4630   22.9750 H         1 SUB1        0.000
     65 H          -5.9790   -4.5760   22.7310 H         1 SUB1        0.000
     66 H          -6.4130   -1.8720   21.3610 H         1 SUB1        0.000
     67 H          -6.5970   -3.4890   20.6000 H         1 SUB1        0.000
     68 H          -4.2020   -3.9210   20.8650 H         1 SUB1        0.000
     69 H          -4.4430   -2.3570   20.0150 H         1 SUB1        0.000
@<TRIPOS>BOND
     1   15   14 1  
     2   16   15 1  
     3   16   17 2  
     4    1    2 2  
     5    1    3 2  
     6    1    5 1  
     7   14    1 1  
     8    5    6 ar 
     9    6    7 ar 
    10    7   13 ar 
    11    8    9 ar 
    12   13    8 ar 
    13    9   10 ar 
    14   11   10 ar 
    15   12   11 ar 
    16   13   12 ar 
    17   19   18 1  
    18   18   28 2  
    19   18   32 am 
    20   19   20 1  
    21   29   19 1  
    22   20   21 1  
    23   21   22 ar 
    24   22   24 ar 
    25   21   23 ar 
    26   23   25 ar 
    27   24   26 ar 
    28   25   26 ar 
    29   26   27 1  
    30   27   30 ar 
    31   27   31 ar 
    32   29   16 am 
    33   32   33 1  
    34   32   37 1  
    35   33   34 1  
    36   34   35 1  
    37   35   36 1  
    38   36   37 1  
    39   12    4 ar 
    40    5    4 ar 
    41   14   38 1  
    42   15   39 1  
    43   15   40 1  
    44    4   41 1  
    45    6   42 1  
    46    7   43 1  
    47    8   44 1  
    48    9   45 1  
    49   10   46 1  
    50   11   47 1  
    51   19   48 1  
    52   20   49 1  
    53   20   50 1  
    54   22   51 1  
    55   23   52 1  
    56   24   53 1  
    57   25   54 1  
    58   29   55 1  
    59   30   56 1  
    60   30   57 1  
    61   31   58 1  
    62   31   59 1  
    63   33   60 1  
    64   33   61 1  
    65   34   62 1  
    66   34   63 1  
    67   35   64 1  
    68   35   65 1  
    69   36   66 1  
    70   36   67 1  
    71   37   68 1  
    72   37   69 1  
@<TRIPOS>SUBSTRUCTURE
     1 SUB1        1 GROUP

### 
### Created by X-TOOL on Tue Dec  2 13:04:55 2003
### 

@<TRIPOS>MOLECULE
1ppc-ligand.1ppc.074
   69    72     1     0     0
SMALL
MMFF94_CHARGES


@<TRIPOS>ATOM
      1 S           0.3070    0.3710   18.9860 S.o2      1 SUB1        1.447
      2 O1          1.5250   -0.5460   18.8120 O.2       1 SUB1       -0.650
      3 O2          0.3110    1.4450   17.9020 O.2       1 SUB1       -0.650
      4 C1          0.0700    2.3820   20.9100 C.ar      1 SUB1       -0.150
      5 C2          0.3850    1.0770   20.6330 C.ar      1 SUB1       -0.009
      6 C3          0.8320    0.2720   21.6430 C.ar      1 SUB1       -0.150
      7 C4          1.0180    0.7850   22.9060 C.ar      1 SUB1       -0.150
      8 C5          0.8810    2.5780   24.4480 C.ar      1 SUB1       -0.150
      9 C6          0.5320    3.8860   24.7310 C.ar      1 SUB1       -0.150
     10 C7          0.0520    4.7090   23.7300 C.ar      1 SUB1       -0.150
     11 C8         -0.0910    4.2330   22.4360 C.ar      1 SUB1       -0.150
     12 C9          0.2160    2.9120   22.1740 C.ar      1 SUB1        0.000
     13 C10         0.7050    2.0990   23.1660 C.ar      1 SUB1        0.000
     14 N          -1.0960   -0.4560   18.6670 N.am      1 SUB1       -0.914
     15 CA         -2.2810    0.3630   18.7560 C.3       1 SUB1        0.417
     16 C          -3.0550    0.1980   20.0580 C.2       1 SUB1        0.569
     17 O          -3.1450   -0.8860   20.6460 O.2       1 SUB1       -0.570
     18 C          -3.5720    2.2230   22.6230 C.2       1 SUB1        0.569
     19 CA         -4.4820    1.5540   21.5930 C.3       1 SUB1        0.361
     20 CB         -5.7060    2.4380   21.3070 C.3       1 SUB1        0.144
     21 CG         -5.3410    3.8620   20.9380 C.ar      1 SUB1       -0.144
     22 CD1        -5.4140    4.8730   21.8790 C.ar      1 SUB1       -0.150
     23 CD2        -4.8470    4.1340   19.6830 C.ar      1 SUB1       -0.150
     24 CE1        -5.0310    6.1610   21.5570 C.ar      1 SUB1       -0.150
     25 CE2        -4.4710    5.4230   19.3670 C.ar      1 SUB1       -0.150
     26 CZ         -4.5360    6.4500   20.3010 C.ar      1 SUB1       -0.022
     27 CF         -4.0790    7.7330   19.9680 C.cat     1 SUB1        0.731
     28 O          -2.8120    3.1370   22.2880 O.2       1 SUB1       -0.570
     29 N          -3.6890    1.3360   20.3910 N.am      1 SUB1       -0.730
     30 NG1        -4.7940    8.5300   19.1520 N.pl3     1 SUB1       -1.192
     31 NG2        -2.9460    8.1700   20.5320 N.pl3     1 SUB1       -1.192
     32 N1         -3.6230    1.8110   23.9010 N.am      1 SUB1       -0.660
     33 C2         -4.6320    0.8900   24.3980 C.3       1 SUB1        0.300
     34 C3         -3.9050   -0.2970   24.9850 C.3       1 SUB1        0.000
     35 C4         -3.1170    0.1980   26.1880 C.3       1 SUB1        0.000
     36 C5         -2.1360    1.2470   25.6730 C.3       1 SUB1        0.000
     37 C6         -2.8130    2.3990   24.9590 C.3       1 SUB1        0.300
     38 H          -1.1180   -1.4290   18.4360 H         1 SUB1        0.420
     39 HA1        -1.9800    1.4170   18.6640 H         1 SUB1        0.000
     40 HA2        -2.9470    0.0980   17.9220 H         1 SUB1        0.000
     41 H          -0.3050    3.0150   20.1140 H         1 SUB1        0.150
     42 H           1.0410   -0.7730   21.4480 H         1 SUB1        0.150
     43 H           1.4110    0.1540   23.6960 H         1 SUB1        0.150
     44 H           1.2880    1.9380   25.2230 H         1 SUB1        0.150
     45 H           0.6360    4.2670   25.7420 H         1 SUB1        0.150
     46 H          -0.2150    5.7340   23.9580 H         1 SUB1        0.150
     47 H          -0.4380    4.8870   21.6430 H         1 SUB1        0.150
     48 H          -4.8290    0.5850   21.9810 H         1 SUB1        0.000
     49 H          -6.3390    2.4620   22.2060 H         1 SUB1        0.000
     50 H          -6.2710    1.9950   20.4740 H         1 SUB1        0.000
     51 H          -5.7760    4.6540   22.8770 H         1 SUB1        0.150
     52 H          -4.7540    3.3410   18.9490 H         1 SUB1        0.150
     53 H          -5.1190    6.9490   22.2960 H         1 SUB1        0.150
     54 H          -4.1160    5.6410   18.3660 H         1 SUB1        0.150
     55 H          -3.6080    2.1040   19.7560 H         1 SUB1        0.370
     56 H          -4.3140    9.2160   18.5510 H         1 SUB1        0.669
     57 H          -5.8200    8.4550   19.1300 H         1 SUB1        0.669
     58 H          -2.6990    9.1690   20.4850 H         1 SUB1        0.669
     59 H          -2.3220    7.5070   21.0130 H         1 SUB1        0.669
     60 H          -5.2830    0.5630   23.5730 H         1 SUB1        0.000
     61 H          -5.2400    1.3810   25.1720 H         1 SUB1        0.000
     62 H          -3.2210   -0.7250   24.2380 H         1 SUB1        0.000
     63 H          -4.6290   -1.0620   25.3000 H         1 SUB1        0.000
     64 H          -2.5700   -0.6360   26.6520 H         1 SUB1        0.000
     65 H          -3.7960    0.6460   26.9270 H         1 SUB1        0.000
     66 H          -1.4400    0.7620   24.9730 H         1 SUB1        0.000
     67 H          -1.5730    1.6500   26.5290 H         1 SUB1        0.000
     68 H          -3.4510    2.9580   25.6590 H         1 SUB1        0.000
     69 H          -2.0590    3.0750   24.5300 H         1 SUB1        0.000
@<TRIPOS>BOND
     1   15   14 1  
     2   16   15 1  
     3   16   17 2  
     4    1    2 2  
     5    1    3 2  
     6    1    5 1  
     7   14    1 1  
     8    5    6 ar 
     9    6    7 ar 
    10    7   13 ar 
    11    8    9 ar 
    12   13    8 ar 
    13    9   10 ar 
    14   11   10 ar 
    15   12   11 ar 
    16   13   12 ar 
    17   19   18 1  
    18   18   28 2  
    19   18   32 am 
    20   19   20 1  
    21   29   19 1  
    22   20   21 1  
    23   21   22 ar 
    24   22   24 ar 
    25   21   23 ar 
    26   23   25 ar 
    27   24   26 ar 
    28   25   26 ar 
    29   26   27 1  
    30   27   30 ar 
    31   27   31 ar 
    32   29   16 am 
    33   32   33 1  
    34   32   37 1  
    35   33   34 1  
    36   34   35 1  
    37   35   36 1  
    38   36   37 1  
    39   12    4 ar 
    40    5    4 ar 
    41   14   38 1  
    42   15   39 1  
    43   15   40 1  
    44    4   41 1  
    45    6   42 1  
    46    7   43 1  
    47    8   44 1  
    48    9   45 1  
    49   10   46 1  
    50   11   47 1  
    51   19   48 1  
    52   20   49 1  
    53   20   50 1  
    54   22   51 1  
    55   23   52 1  
    56   24   53 1  
    57   25   54 1  
    58   29   55 1  
    59   30   56 1  
    60   30   57 1  
    61   31   58 1  
    62   31   59 1  
    63   33   60 1  
    64   33   61 1  
    65   34   62 1  
    66   34   63 1  
    67   35   64 1  
    68   35   65 1  
    69   36   66 1  
    70   36   67 1  
    71   37   68 1  
    72   37   69 1  
@<TRIPOS>SUBSTRUCTURE
     1 SUB1        1 GROUP

### 
### Created by X-TOOL on Tue Dec  2 13:04:55 2003
### 

@<TRIPOS>MOLECULE
1ppc-ligand.1ppc.075
   69    72     1     0     0
SMALL
MMFF94_CHARGES


@<TRIPOS>ATOM
      1 S          -1.2190    3.0610   19.3990 S.o2      1 SUB1        1.447
      2 O1         -0.3830    3.1760   18.1180 O.2       1 SUB1       -0.650
      3 O2         -2.2110    1.9090   19.2660 O.2       1 SUB1       -0.650
      4 C1         -1.7010    5.7830   18.9970 C.ar      1 SUB1       -0.150
      5 C2         -2.0440    4.6330   19.6580 C.ar      1 SUB1       -0.009
      6 C3         -3.0310    4.6780   20.6030 C.ar      1 SUB1       -0.150
      7 C4         -3.6270    5.8750   20.9250 C.ar      1 SUB1       -0.150
      8 C5         -3.8960    8.2050   20.5880 C.ar      1 SUB1       -0.150
      9 C6         -3.5700    9.3580   19.8970 C.ar      1 SUB1       -0.150
     10 C7         -2.5940    9.3280   18.9180 C.ar      1 SUB1       -0.150
     11 C8         -1.9380    8.1450   18.6140 C.ar      1 SUB1       -0.150
     12 C9         -2.3050    6.9910   19.2770 C.ar      1 SUB1        0.000
     13 C10        -3.2650    7.0240   20.2580 C.ar      1 SUB1        0.000
     14 N          -0.2720    2.5740   20.6720 N.am      1 SUB1       -0.914
     15 CA         -1.0070    2.3890   21.9000 C.3       1 SUB1        0.417
     16 C          -0.5520    1.1900   22.7230 C.2       1 SUB1        0.569
     17 O          -1.0750    0.0740   22.6180 O.2       1 SUB1       -0.570
     18 C           1.8730   -0.3420   23.6900 C.2       1 SUB1        0.569
     19 CA          1.0750    0.6500   24.5370 C.3       1 SUB1        0.361
     20 CB          2.0110    1.4220   25.4800 C.3       1 SUB1        0.144
     21 CG          2.0840    0.8230   26.8700 C.ar      1 SUB1       -0.144
     22 CD1         0.9350    0.6410   27.6190 C.ar      1 SUB1       -0.150
     23 CD2         3.2900    0.3740   27.3550 C.ar      1 SUB1       -0.150
     24 CE1         0.9950    0.0470   28.8650 C.ar      1 SUB1       -0.150
     25 CE2         3.3440   -0.2140   28.6030 C.ar      1 SUB1       -0.150
     26 CZ          2.1990   -0.4070   29.3660 C.ar      1 SUB1       -0.022
     27 CF          2.2790   -1.0720   30.5980 C.cat     1 SUB1        0.731
     28 O           2.8830    0.0250   23.0800 O.2       1 SUB1       -0.570
     29 N           0.3850    1.5450   23.6190 N.am      1 SUB1       -0.730
     30 NG1         2.6580   -2.3620   30.6620 N.pl3     1 SUB1       -1.192
     31 NG2         2.0330   -0.3740   31.7130 N.pl3     1 SUB1       -1.192
     32 N1          1.4690   -1.6210   23.6320 N.am      1 SUB1       -0.660
     33 C2          0.4190   -2.1610   24.4810 C.3       1 SUB1        0.300
     34 C3         -0.6490   -2.7210   23.5710 C.3       1 SUB1        0.000
     35 C4         -0.0390   -3.8900   22.8140 C.3       1 SUB1        0.000
     36 C5          1.1340   -3.3340   22.0110 C.3       1 SUB1        0.000
     37 C6          2.1730   -2.6450   22.8720 C.3       1 SUB1        0.300
     38 H           0.7130    2.4240   20.5960 H         1 SUB1        0.420
     39 HA1        -0.8890    3.2940   22.5140 H         1 SUB1        0.000
     40 HA2        -2.0700    2.2530   21.6500 H         1 SUB1        0.000
     41 H          -0.9340    5.7430   18.2320 H         1 SUB1        0.150
     42 H          -3.3440    3.7680   21.1010 H         1 SUB1        0.150
     43 H          -4.3810    5.9150   21.7040 H         1 SUB1        0.150
     44 H          -4.6370    8.2300   21.3780 H         1 SUB1        0.150
     45 H          -4.0800   10.2870   20.1240 H         1 SUB1        0.150
     46 H          -2.3400   10.2360   18.3840 H         1 SUB1        0.150
     47 H          -1.1510    8.1270   17.8690 H         1 SUB1        0.150
     48 H           0.3340    0.1050   25.1420 H         1 SUB1        0.000
     49 H           1.6470    2.4560   25.5640 H         1 SUB1        0.000
     50 H           3.0220    1.4230   25.0470 H         1 SUB1        0.000
     51 H          -0.0210    0.9690   27.2250 H         1 SUB1        0.150
     52 H           4.1910    0.4810   26.7620 H         1 SUB1        0.150
     53 H           0.0910   -0.0640   29.4520 H         1 SUB1        0.150
     54 H           4.3020   -0.5340   28.9960 H         1 SUB1        0.150
     55 H           0.6320    2.5130   23.6590 H         1 SUB1        0.370
     56 H           3.1630   -2.7900   29.8740 H         1 SUB1        0.669
     57 H           2.4430   -2.9200   31.5000 H         1 SUB1        0.669
     58 H           1.8550    0.6390   31.6590 H         1 SUB1        0.669
     59 H           2.0220   -0.8500   32.6260 H         1 SUB1        0.669
     60 H          -0.0030   -1.3630   25.1110 H         1 SUB1        0.000
     61 H           0.8250   -2.9580   25.1210 H         1 SUB1        0.000
     62 H          -0.9820   -1.9480   22.8630 H         1 SUB1        0.000
     63 H          -1.5060   -3.0670   24.1670 H         1 SUB1        0.000
     64 H          -0.7830   -4.3330   22.1370 H         1 SUB1        0.000
     65 H           0.3150   -4.6550   23.5200 H         1 SUB1        0.000
     66 H           0.7460   -2.6080   21.2830 H         1 SUB1        0.000
     67 H           1.6190   -4.1650   21.4780 H         1 SUB1        0.000
     68 H           2.6420   -3.3690   23.5540 H         1 SUB1        0.000
     69 H           2.9450   -2.1840   22.2390 H         1 SUB1        0.000
@<TRIPOS>BOND
     1   15   14 1  
     2   16   15 1  
     3   16   17 2  
     4    1    2 2  
     5    1    3 2  
     6    1    5 1  
     7   14    1 1  
     8    5    6 ar 
     9    6    7 ar 
    10    7   13 ar 
    11    8    9 ar 
    12   13    8 ar 
    13    9   10 ar 
    14   11   10 ar 
    15   12   11 ar 
    16   13   12 ar 
    17   19   18 1  
    18   18   28 2  
    19   18   32 am 
    20   19   20 1  
    21   29   19 1  
    22   20   21 1  
    23   21   22 ar 
    24   22   24 ar 
    25   21   23 ar 
    26   23   25 ar 
    27   24   26 ar 
    28   25   26 ar 
    29   26   27 1  
    30   27   30 ar 
    31   27   31 ar 
    32   29   16 am 
    33   32   33 1  
    34   32   37 1  
    35   33   34 1  
    36   34   35 1  
    37   35   36 1  
    38   36   37 1  
    39   12    4 ar 
    40    5    4 ar 
    41   14   38 1  
    42   15   39 1  
    43   15   40 1  
    44    4   41 1  
    45    6   42 1  
    46    7   43 1  
    47    8   44 1  
    48    9   45 1  
    49   10   46 1  
    50   11   47 1  
    51   19   48 1  
    52   20   49 1  
    53   20   50 1  
    54   22   51 1  
    55   23   52 1  
    56   24   53 1  
    57   25   54 1  
    58   29   55 1  
    59   30   56 1  
    60   30   57 1  
    61   31   58 1  
    62   31   59 1  
    63   33   60 1  
    64   33   61 1  
    65   34   62 1  
    66   34   63 1  
    67   35   64 1  
    68   35   65 1  
    69   36   66 1  
    70   36   67 1  
    71   37   68 1  
    72   37   69 1  
@<TRIPOS>SUBSTRUCTURE
     1 SUB1        1 GROUP

### 
### Created by X-TOOL on Tue Dec  2 13:04:55 2003
### 

@<TRIPOS>MOLECULE
1ppc-ligand.1ppc.076
   69    72     1     0     0
SMALL
MMFF94_CHARGES


@<TRIPOS>ATOM
      1 S          -0.9810    1.2810   28.2750 S.o2      1 SUB1        1.447
      2 O1         -1.8840    0.4200   27.3810 O.2       1 SUB1       -0.650
      3 O2         -1.0260    2.7330   27.8080 O.2       1 SUB1       -0.650
      4 C1          0.9800   -0.6890   28.5520 C.ar      1 SUB1       -0.150
      5 C2          0.6760    0.5990   28.1980 C.ar      1 SUB1       -0.009
      6 C3          1.6840    1.4380   27.8110 C.ar      1 SUB1       -0.150
      7 C4          2.9910    1.0070   27.8360 C.ar      1 SUB1       -0.150
      8 C5          4.5980   -0.6960   28.1970 C.ar      1 SUB1       -0.150
      9 C6          4.8970   -2.0050   28.5240 C.ar      1 SUB1       -0.150
     10 C7          3.8890   -2.8770   28.8910 C.ar      1 SUB1       -0.150
     11 C8          2.5700   -2.4530   28.9290 C.ar      1 SUB1       -0.150
     12 C9          2.2780   -1.1560   28.5550 C.ar      1 SUB1        0.000
     13 C10         3.2800   -0.2870   28.2030 C.ar      1 SUB1        0.000
     14 N          -1.6040    1.3790   29.8100 N.am      1 SUB1       -0.914
     15 CA         -0.8340    2.2220   30.6920 C.3       1 SUB1        0.417
     16 C          -0.8960    3.7050   30.3460 C.2       1 SUB1        0.569
     17 O          -0.1010    4.2390   29.5620 O.2       1 SUB1       -0.570
     18 C          -3.4340    5.8280   30.0820 C.2       1 SUB1        0.569
     19 CA         -2.1960    5.7410   30.9750 C.3       1 SUB1        0.361
     20 CB         -2.4900    6.3480   32.3560 C.3       1 SUB1        0.144
     21 CG         -1.5850    7.5130   32.7010 C.ar      1 SUB1       -0.144
     22 CD1        -0.8550    7.5130   33.8760 C.ar      1 SUB1       -0.150
     23 CD2        -1.4210    8.5370   31.7980 C.ar      1 SUB1       -0.150
     24 CE1         0.0110    8.5500   34.1660 C.ar      1 SUB1       -0.150
     25 CE2        -0.5590    9.5730   32.0960 C.ar      1 SUB1       -0.150
     26 CZ          0.1850    9.5860   33.2700 C.ar      1 SUB1       -0.022
     27 CF          1.1040   10.6180   33.5080 C.cat     1 SUB1        0.731
     28 O          -4.5600    5.6240   30.5490 O.2       1 SUB1       -0.570
     29 N          -1.8340    4.3340   31.0760 N.am      1 SUB1       -0.730
     30 NG1         1.0890   11.3010   34.6680 N.pl3     1 SUB1       -1.192
     31 NG2         2.0370   10.8630   32.5810 N.pl3     1 SUB1       -1.192
     32 N1         -3.2800    6.1430   28.7850 N.am      1 SUB1       -0.660
     33 C2         -2.0170    6.5920   28.2230 C.3       1 SUB1        0.300
     34 C3         -1.6600    5.6390   27.1060 C.3       1 SUB1        0.000
     35 C4         -2.7150    5.7900   26.0200 C.3       1 SUB1        0.000
     36 C5         -4.0550    5.4250   26.6510 C.3       1 SUB1        0.000
     37 C6         -4.3970    6.2720   27.8590 C.3       1 SUB1        0.300
     38 H          -2.4330    0.8990   30.0960 H         1 SUB1        0.420
     39 HA1        -1.2150    2.0910   31.7160 H         1 SUB1        0.000
     40 HA2         0.2170    1.9010   30.6480 H         1 SUB1        0.000
     41 H           0.1780   -1.3610   28.8390 H         1 SUB1        0.150
     42 H           1.4540    2.4450   27.4840 H         1 SUB1        0.150
     43 H           3.7910    1.6880   27.5670 H         1 SUB1        0.150
     44 H           5.3880    0.0000   27.9390 H         1 SUB1        0.150
     45 H           5.9250   -2.3490   28.4930 H         1 SUB1        0.150
     46 H           4.1320   -3.9010   29.1510 H         1 SUB1        0.150
     47 H           1.7830   -3.1260   29.2470 H         1 SUB1        0.150
     48 H          -1.3680    6.2990   30.5130 H         1 SUB1        0.000
     49 H          -2.3580    5.5650   33.1170 H         1 SUB1        0.000
     50 H          -3.5320    6.6980   32.3700 H         1 SUB1        0.000
     51 H          -0.9620    6.6910   34.5760 H         1 SUB1        0.150
     52 H          -1.9630    8.5300   30.8590 H         1 SUB1        0.150
     53 H           0.5560    8.5500   35.1020 H         1 SUB1        0.150
     54 H          -0.4590   10.3950   31.3970 H         1 SUB1        0.150
     55 H          -2.3270    3.7860   31.7510 H         1 SUB1        0.370
     56 H           1.8190   11.1320   35.3740 H         1 SUB1        0.669
     57 H           0.3480   11.9930   34.8480 H         1 SUB1        0.669
     58 H           2.4410   11.8070   32.4930 H         1 SUB1        0.669
     59 H           2.3510   10.1090   31.9550 H         1 SUB1        0.669
     60 H          -1.2340    6.5770   28.9950 H         1 SUB1        0.000
     61 H          -2.1230    7.6130   27.8280 H         1 SUB1        0.000
     62 H          -1.6540    4.6060   27.4820 H         1 SUB1        0.000
     63 H          -0.6680    5.8890   26.7030 H         1 SUB1        0.000
     64 H          -2.4940    5.1140   25.1820 H         1 SUB1        0.000
     65 H          -2.7380    6.8280   25.6580 H         1 SUB1        0.000
     66 H          -4.0190    4.3710   26.9620 H         1 SUB1        0.000
     67 H          -4.8450    5.5580   25.8960 H         1 SUB1        0.000
     68 H          -4.5250    7.3230   27.5630 H         1 SUB1        0.000
     69 H          -5.3230    5.9080   28.3280 H         1 SUB1        0.000
@<TRIPOS>BOND
     1   15   14 1  
     2   16   15 1  
     3   16   17 2  
     4    1    2 2  
     5    1    3 2  
     6    1    5 1  
     7   14    1 1  
     8    5    6 ar 
     9    6    7 ar 
    10    7   13 ar 
    11    8    9 ar 
    12   13    8 ar 
    13    9   10 ar 
    14   11   10 ar 
    15   12   11 ar 
    16   13   12 ar 
    17   19   18 1  
    18   18   28 2  
    19   18   32 am 
    20   19   20 1  
    21   29   19 1  
    22   20   21 1  
    23   21   22 ar 
    24   22   24 ar 
    25   21   23 ar 
    26   23   25 ar 
    27   24   26 ar 
    28   25   26 ar 
    29   26   27 1  
    30   27   30 ar 
    31   27   31 ar 
    32   29   16 am 
    33   32   33 1  
    34   32   37 1  
    35   33   34 1  
    36   34   35 1  
    37   35   36 1  
    38   36   37 1  
    39   12    4 ar 
    40    5    4 ar 
    41   14   38 1  
    42   15   39 1  
    43   15   40 1  
    44    4   41 1  
    45    6   42 1  
    46    7   43 1  
    47    8   44 1  
    48    9   45 1  
    49   10   46 1  
    50   11   47 1  
    51   19   48 1  
    52   20   49 1  
    53   20   50 1  
    54   22   51 1  
    55   23   52 1  
    56   24   53 1  
    57   25   54 1  
    58   29   55 1  
    59   30   56 1  
    60   30   57 1  
    61   31   58 1  
    62   31   59 1  
    63   33   60 1  
    64   33   61 1  
    65   34   62 1  
    66   34   63 1  
    67   35   64 1  
    68   35   65 1  
    69   36   66 1  
    70   36   67 1  
    71   37   68 1  
    72   37   69 1  
@<TRIPOS>SUBSTRUCTURE
     1 SUB1        1 GROUP

### 
### Created by X-TOOL on Tue Dec  2 13:04:55 2003
### 

@<TRIPOS>MOLECULE
1ppc-ligand.1ppc.077
   69    72     1     0     0
SMALL
MMFF94_CHARGES


@<TRIPOS>ATOM
      1 S          -3.0660    7.0280   29.9180 S.o2      1 SUB1        1.447
      2 O1         -4.3620    7.8420   29.8140 O.2       1 SUB1       -0.650
      3 O2         -3.3850    5.6070   30.3730 O.2       1 SUB1       -0.650
      4 C1         -2.1340    7.8280   32.4270 C.ar      1 SUB1       -0.150
      5 C2         -1.9780    7.8740   31.0660 C.ar      1 SUB1       -0.009
      6 C3         -0.9780    8.6400   30.5370 C.ar      1 SUB1       -0.150
      7 C4         -0.1780    9.4000   31.3600 C.ar      1 SUB1       -0.150
      8 C5          0.4780   10.1050   33.5240 C.ar      1 SUB1       -0.150
      9 C6          0.3390   10.0320   34.8980 C.ar      1 SUB1       -0.150
     10 C7         -0.6500    9.2410   35.4540 C.ar      1 SUB1       -0.150
     11 C8         -1.5050    8.5100   34.6450 C.ar      1 SUB1       -0.150
     12 C9         -1.3260    8.5540   33.2760 C.ar      1 SUB1        0.000
     13 C10        -0.3530    9.3490   32.7240 C.ar      1 SUB1        0.000
     14 N          -2.4090    6.7850   28.4140 N.am      1 SUB1       -0.914
     15 CA         -1.2150    5.9740   28.4310 C.3       1 SUB1        0.417
     16 C          -1.4210    4.5520   27.9220 C.2       1 SUB1        0.569
     17 O          -2.5320    4.1160   27.5990 O.2       1 SUB1       -0.570
     18 C           0.7700    2.5120   26.2810 C.2       1 SUB1        0.569
     19 CA         -0.0960    2.4710   27.5390 C.3       1 SUB1        0.361
     20 CB          0.5750    1.6130   28.6230 C.3       1 SUB1        0.144
     21 CG         -0.2280    1.5360   29.9060 C.ar      1 SUB1       -0.144
     22 CD1        -0.9000    0.3760   30.2470 C.ar      1 SUB1       -0.150
     23 CD2        -0.2160    2.5970   30.7810 C.ar      1 SUB1       -0.150
     24 CE1        -1.5880    0.2870   31.4420 C.ar      1 SUB1       -0.150
     25 CE2        -0.9100    2.5050   31.9700 C.ar      1 SUB1       -0.150
     26 CZ         -1.5870    1.3450   32.3290 C.ar      1 SUB1       -0.022
     27 CF         -2.2220    1.2600   33.5760 C.cat     1 SUB1        0.731
     28 O           1.9850    2.2970   26.3490 O.2       1 SUB1       -0.570
     29 N          -0.2790    3.8460   27.9840 N.am      1 SUB1       -0.730
     30 NG1        -2.5200    2.3710   34.2760 N.pl3     1 SUB1       -1.192
     31 NG2        -2.5840    0.0520   34.0230 N.pl3     1 SUB1       -1.192
     32 N1          0.1890    2.7710   25.0980 N.am      1 SUB1       -0.660
     33 C2         -1.2530    2.8300   24.9190 C.3       1 SUB1        0.300
     34 C3         -1.5800    4.1950   24.3630 C.3       1 SUB1        0.000
     35 C4         -0.9520    4.2900   22.9810 C.3       1 SUB1        0.000
     36 C5          0.5530    4.1150   23.1660 C.3       1 SUB1        0.000
     37 C6          0.9240    2.8110   23.8410 C.3       1 SUB1        0.300
     38 H          -2.8030    7.1630   27.5760 H         1 SUB1        0.420
     39 HA1        -0.4580    6.4610   27.7980 H         1 SUB1        0.000
     40 HA2        -0.8480    5.9200   29.4660 H         1 SUB1        0.000
     41 H          -2.9140    7.2040   32.8480 H         1 SUB1        0.150
     42 H          -0.8130    8.6500   29.4660 H         1 SUB1        0.150
     43 H           0.5880   10.0370   30.9340 H         1 SUB1        0.150
     44 H           1.2310   10.7480   33.0820 H         1 SUB1        0.150
     45 H           1.0060   10.5960   35.5410 H         1 SUB1        0.150
     46 H          -0.7560    9.1920   36.5320 H         1 SUB1        0.150
     47 H          -2.3000    7.9140   35.0790 H         1 SUB1        0.150
     48 H          -1.0770    2.0330   27.2980 H         1 SUB1        0.000
     49 H           1.5590    2.0460   28.8520 H         1 SUB1        0.000
     50 H           0.7060    0.5930   28.2310 H         1 SUB1        0.000
     51 H          -0.8860   -0.4720   29.5710 H         1 SUB1        0.150
     52 H           0.3350    3.4990   30.5380 H         1 SUB1        0.150
     53 H          -2.1320   -0.6180   31.6840 H         1 SUB1        0.150
     54 H          -0.9270    3.3560   32.6400 H         1 SUB1        0.150
     55 H           0.5200    4.3070   28.3720 H         1 SUB1        0.370
     56 H          -3.1160    3.0990   33.8580 H         1 SUB1        0.669
     57 H          -2.1510    2.4920   35.2300 H         1 SUB1        0.669
     58 H          -3.4600   -0.3780   33.6940 H         1 SUB1        0.669
     59 H          -1.9860   -0.4480   34.6960 H         1 SUB1        0.669
     60 H          -1.7580    2.6850   25.8860 H         1 SUB1        0.000
     61 H          -1.5770    2.0480   24.2160 H         1 SUB1        0.000
     62 H          -1.1660    4.9760   25.0180 H         1 SUB1        0.000
     63 H          -2.6700    4.3190   24.2880 H         1 SUB1        0.000
     64 H          -1.1660    5.2710   22.5330 H         1 SUB1        0.000
     65 H          -1.3470    3.4960   22.3300 H         1 SUB1        0.000
     66 H           0.9290    4.9460   23.7800 H         1 SUB1        0.000
     67 H           1.0330    4.1440   22.1760 H         1 SUB1        0.000
     68 H           0.6370    1.9590   23.2070 H         1 SUB1        0.000
     69 H           2.0060    2.7770   24.0330 H         1 SUB1        0.000
@<TRIPOS>BOND
     1   15   14 1  
     2   16   15 1  
     3   16   17 2  
     4    1    2 2  
     5    1    3 2  
     6    1    5 1  
     7   14    1 1  
     8    5    6 ar 
     9    6    7 ar 
    10    7   13 ar 
    11    8    9 ar 
    12   13    8 ar 
    13    9   10 ar 
    14   11   10 ar 
    15   12   11 ar 
    16   13   12 ar 
    17   19   18 1  
    18   18   28 2  
    19   18   32 am 
    20   19   20 1  
    21   29   19 1  
    22   20   21 1  
    23   21   22 ar 
    24   22   24 ar 
    25   21   23 ar 
    26   23   25 ar 
    27   24   26 ar 
    28   25   26 ar 
    29   26   27 1  
    30   27   30 ar 
    31   27   31 ar 
    32   29   16 am 
    33   32   33 1  
    34   32   37 1  
    35   33   34 1  
    36   34   35 1  
    37   35   36 1  
    38   36   37 1  
    39   12    4 ar 
    40    5    4 ar 
    41   14   38 1  
    42   15   39 1  
    43   15   40 1  
    44    4   41 1  
    45    6   42 1  
    46    7   43 1  
    47    8   44 1  
    48    9   45 1  
    49   10   46 1  
    50   11   47 1  
    51   19   48 1  
    52   20   49 1  
    53   20   50 1  
    54   22   51 1  
    55   23   52 1  
    56   24   53 1  
    57   25   54 1  
    58   29   55 1  
    59   30   56 1  
    60   30   57 1  
    61   31   58 1  
    62   31   59 1  
    63   33   60 1  
    64   33   61 1  
    65   34   62 1  
    66   34   63 1  
    67   35   64 1  
    68   35   65 1  
    69   36   66 1  
    70   36   67 1  
    71   37   68 1  
    72   37   69 1  
@<TRIPOS>SUBSTRUCTURE
     1 SUB1        1 GROUP

### 
### Created by X-TOOL on Tue Dec  2 13:04:55 2003
### 

@<TRIPOS>MOLECULE
1ppc-ligand.1ppc.078
   69    72     1     0     0
SMALL
MMFF94_CHARGES


@<TRIPOS>ATOM
      1 S          -6.4850    4.0190   20.5670 S.o2      1 SUB1        1.447
      2 O1         -6.7160    5.3640   19.8660 O.2       1 SUB1       -0.650
      3 O2         -7.4450    2.9730   20.0050 O.2       1 SUB1       -0.650
      4 C1         -7.9300    4.1230   22.9560 C.ar      1 SUB1       -0.150
      5 C2         -6.7210    4.2710   22.3270 C.ar      1 SUB1       -0.009
      6 C3         -5.6390    4.6810   23.0550 C.ar      1 SUB1       -0.150
      7 C4         -5.7790    4.9960   24.3870 C.ar      1 SUB1       -0.150
      8 C5         -7.1070    5.1540   26.3430 C.ar      1 SUB1       -0.150
      9 C6         -8.3200    4.9730   26.9810 C.ar      1 SUB1       -0.150
     10 C7         -9.4200    4.5330   26.2690 C.ar      1 SUB1       -0.150
     11 C8         -9.3190    4.2620   24.9130 C.ar      1 SUB1       -0.150
     12 C9         -8.0910    4.4010   24.2970 C.ar      1 SUB1        0.000
     13 C10        -7.0020    4.8510   25.0020 C.ar      1 SUB1        0.000
     14 N          -5.0000    3.3980   20.1630 N.am      1 SUB1       -0.914
     15 CA         -4.7400    2.1020   20.7430 C.3       1 SUB1        0.417
     16 C          -3.2600    1.7540   20.8490 C.2       1 SUB1        0.569
     17 O          -2.7230    1.4550   21.9230 O.2       1 SUB1       -0.570
     18 C          -0.4180    2.2410   20.5400 C.2       1 SUB1        0.569
     19 CA         -1.2350    1.6420   19.3950 C.3       1 SUB1        0.361
     20 CB         -0.9740    0.1310   19.2870 C.3       1 SUB1        0.144
     21 CG         -0.7870   -0.3420   17.8590 C.ar      1 SUB1       -0.144
     22 CD1        -1.8520   -0.3500   16.9760 C.ar      1 SUB1       -0.150
     23 CD2         0.4690   -0.6800   17.4140 C.ar      1 SUB1       -0.150
     24 CE1        -1.6710   -0.7300   15.6600 C.ar      1 SUB1       -0.150
     25 CE2         0.6420   -1.0650   16.0990 C.ar      1 SUB1       -0.150
     26 CZ         -0.4160   -1.0750   15.1990 C.ar      1 SUB1       -0.022
     27 CF         -0.1910   -1.4020   13.8540 C.cat     1 SUB1        0.731
     28 O           0.2960    1.5210   21.2450 O.2       1 SUB1       -0.570
     29 N          -2.6370    1.9230   19.6700 N.am      1 SUB1       -0.730
     30 NG1        -0.6420   -0.6080   12.8650 N.pl3     1 SUB1       -1.192
     31 NG2         0.5400   -2.4890   13.5790 N.pl3     1 SUB1       -1.192
     32 N1         -0.4770    3.5650   20.7580 N.am      1 SUB1       -0.660
     33 C2         -1.1300    4.4910   19.8460 C.3       1 SUB1        0.300
     34 C3         -2.1910    5.2220   20.6330 C.3       1 SUB1        0.000
     35 C4         -1.4840    6.0560   21.6900 C.3       1 SUB1        0.000
     36 C5         -0.7100    5.0850   22.5760 C.3       1 SUB1        0.000
     37 C6          0.2800    4.2340   21.8070 C.3       1 SUB1        0.300
     38 H          -4.3490    3.8760   19.5740 H         1 SUB1        0.420
     39 HA1        -5.1730    2.0830   21.7540 H         1 SUB1        0.000
     40 HA2        -5.2300    1.3400   20.1190 H         1 SUB1        0.000
     41 H          -8.7830    3.7780   22.3830 H         1 SUB1        0.150
     42 H          -4.6670    4.7570   22.5820 H         1 SUB1        0.150
     43 H          -4.9280    5.3590   24.9520 H         1 SUB1        0.150
     44 H          -6.2490    5.5280   26.8900 H         1 SUB1        0.150
     45 H          -8.4090    5.1770   28.0430 H         1 SUB1        0.150
     46 H         -10.3690    4.3980   26.7750 H         1 SUB1        0.150
     47 H         -10.1880    3.9480   24.3470 H         1 SUB1        0.150
     48 H          -0.9460    2.1190   18.4460 H         1 SUB1        0.000
     49 H          -1.8310   -0.4040   19.7230 H         1 SUB1        0.000
     50 H          -0.0650   -0.1090   19.8560 H         1 SUB1        0.000
     51 H          -2.8380   -0.0550   17.3190 H         1 SUB1        0.150
     52 H           1.3160   -0.6460   18.0890 H         1 SUB1        0.150
     53 H          -2.5190   -0.7570   14.9860 H         1 SUB1        0.150
     54 H           1.6270   -1.3650   15.7620 H         1 SUB1        0.150
     55 H          -3.1860    2.2750   18.9120 H         1 SUB1        0.370
     56 H          -0.9820    0.3400   13.0810 H         1 SUB1        0.669
     57 H          -0.6480   -0.9490   11.8940 H         1 SUB1        0.669
     58 H           0.4700   -2.9370   12.6540 H         1 SUB1        0.669
     59 H           1.1730   -2.8780   14.2920 H         1 SUB1        0.669
     60 H          -1.5910    3.9370   19.0140 H         1 SUB1        0.000
     61 H          -0.3960    5.2070   19.4470 H         1 SUB1        0.000
     62 H          -2.8660    4.4990   21.1150 H         1 SUB1        0.000
     63 H          -2.7710    5.8750   19.9650 H         1 SUB1        0.000
     64 H          -2.2210    6.6100   22.2900 H         1 SUB1        0.000
     65 H          -0.7930    6.7650   21.2130 H         1 SUB1        0.000
     66 H          -1.4280    4.4190   23.0770 H         1 SUB1        0.000
     67 H          -0.1590    5.6640   23.3320 H         1 SUB1        0.000
     68 H           1.0630    4.8670   21.3660 H         1 SUB1        0.000
     69 H           0.7410    3.4910   22.4740 H         1 SUB1        0.000
@<TRIPOS>BOND
     1   15   14 1  
     2   16   15 1  
     3   16   17 2  
     4    1    2 2  
     5    1    3 2  
     6    1    5 1  
     7   14    1 1  
     8    5    6 ar 
     9    6    7 ar 
    10    7   13 ar 
    11    8    9 ar 
    12   13    8 ar 
    13    9   10 ar 
    14   11   10 ar 
    15   12   11 ar 
    16   13   12 ar 
    17   19   18 1  
    18   18   28 2  
    19   18   32 am 
    20   19   20 1  
    21   29   19 1  
    22   20   21 1  
    23   21   22 ar 
    24   22   24 ar 
    25   21   23 ar 
    26   23   25 ar 
    27   24   26 ar 
    28   25   26 ar 
    29   26   27 1  
    30   27   30 ar 
    31   27   31 ar 
    32   29   16 am 
    33   32   33 1  
    34   32   37 1  
    35   33   34 1  
    36   34   35 1  
    37   35   36 1  
    38   36   37 1  
    39   12    4 ar 
    40    5    4 ar 
    41   14   38 1  
    42   15   39 1  
    43   15   40 1  
    44    4   41 1  
    45    6   42 1  
    46    7   43 1  
    47    8   44 1  
    48    9   45 1  
    49   10   46 1  
    50   11   47 1  
    51   19   48 1  
    52   20   49 1  
    53   20   50 1  
    54   22   51 1  
    55   23   52 1  
    56   24   53 1  
    57   25   54 1  
    58   29   55 1  
    59   30   56 1  
    60   30   57 1  
    61   31   58 1  
    62   31   59 1  
    63   33   60 1  
    64   33   61 1  
    65   34   62 1  
    66   34   63 1  
    67   35   64 1  
    68   35   65 1  
    69   36   66 1  
    70   36   67 1  
    71   37   68 1  
    72   37   69 1  
@<TRIPOS>SUBSTRUCTURE
     1 SUB1        1 GROUP

### 
### Created by X-TOOL on Tue Dec  2 13:04:55 2003
### 

@<TRIPOS>MOLECULE
1ppc-ligand.1ppc.079
   69    72     1     0     0
SMALL
MMFF94_CHARGES


@<TRIPOS>ATOM
      1 S          -4.5100   -0.6200   19.5750 S.o2      1 SUB1        1.447
      2 O1         -5.4720   -1.7680   19.9070 O.2       1 SUB1       -0.650
      3 O2         -5.2730    0.5130   18.8970 O.2       1 SUB1       -0.650
      4 C1         -2.9090   -0.7710   17.2900 C.ar      1 SUB1       -0.150
      5 C2         -3.2130   -1.2800   18.5260 C.ar      1 SUB1       -0.009
      6 C3         -2.5370   -2.3800   18.9760 C.ar      1 SUB1       -0.150
      7 C4         -1.6070   -2.9980   18.1730 C.ar      1 SUB1       -0.150
      8 C5         -0.3670   -3.1090   16.1570 C.ar      1 SUB1       -0.150
      9 C6         -0.0410   -2.5740   14.9240 C.ar      1 SUB1       -0.150
     10 C7         -0.6930   -1.4460   14.4620 C.ar      1 SUB1       -0.150
     11 C8         -1.6750   -0.8370   15.2280 C.ar      1 SUB1       -0.150
     12 C9         -1.9590   -1.3520   16.4770 C.ar      1 SUB1        0.000
     13 C10        -1.3200   -2.4800   16.9300 C.ar      1 SUB1        0.000
     14 N          -3.9580    0.0990   20.9650 N.am      1 SUB1       -0.914
     15 CA         -3.0900    1.2270   20.7250 C.3       1 SUB1        0.417
     16 C          -3.4830    2.4870   21.4870 C.2       1 SUB1        0.569
     17 O          -4.5950    3.0160   21.3700 O.2       1 SUB1       -0.570
     18 C          -3.1300    5.2760   22.2840 C.2       1 SUB1        0.569
     19 CA         -2.4690    4.1370   23.0610 C.3       1 SUB1        0.361
     20 CB         -3.2470    3.8510   24.3550 C.3       1 SUB1        0.144
     21 CG         -2.6520    4.5300   25.5720 C.ar      1 SUB1       -0.144
     22 CD1        -3.1160    5.7670   25.9840 C.ar      1 SUB1       -0.150
     23 CD2        -1.7070    3.8730   26.3240 C.ar      1 SUB1       -0.150
     24 CE1        -2.6110    6.3630   27.1240 C.ar      1 SUB1       -0.150
     25 CE2        -1.2030    4.4760   27.4590 C.ar      1 SUB1       -0.150
     26 CZ         -1.6600    5.7160   27.8880 C.ar      1 SUB1       -0.022
     27 CF         -1.1770    6.2680   29.0830 C.cat     1 SUB1        0.731
     28 O          -4.3090    5.5770   22.4950 O.2       1 SUB1       -0.570
     29 N          -2.4430    2.9740   22.1860 N.am      1 SUB1       -0.730
     30 NG1        -0.8190    7.5640   29.1500 N.pl3     1 SUB1       -1.192
     31 NG2        -1.1430    5.4910   30.1720 N.pl3     1 SUB1       -1.192
     32 N1         -2.4050    5.9530   21.3790 N.am      1 SUB1       -0.660
     33 C2         -0.9680    5.7870   21.2290 C.3       1 SUB1        0.300
     34 C3         -0.7110    5.3750   19.7990 C.3       1 SUB1        0.000
     35 C4         -1.1250    6.5350   18.9070 C.3       1 SUB1        0.000
     36 C5         -2.6110    6.7760   19.1540 C.3       1 SUB1        0.000
     37 C6         -2.9360    7.0660   20.6050 C.3       1 SUB1        0.300
     38 H          -4.2040   -0.2190   21.8810 H         1 SUB1        0.420
     39 HA1        -2.0690    0.9470   21.0230 H         1 SUB1        0.000
     40 HA2        -3.1080    1.4540   19.6490 H         1 SUB1        0.000
     41 H          -3.4310    0.1130   16.9410 H         1 SUB1        0.150
     42 H          -2.7340   -2.7650   19.9700 H         1 SUB1        0.150
     43 H          -1.1010   -3.8930   18.5170 H         1 SUB1        0.150
     44 H           0.1200   -4.0110   16.5100 H         1 SUB1        0.150
     45 H           0.7290   -3.0400   14.3180 H         1 SUB1        0.150
     46 H          -0.4360   -1.0360   13.4920 H         1 SUB1        0.150
     47 H          -2.2090    0.0280   14.8530 H         1 SUB1        0.150
     48 H          -1.4380    4.4200   23.3240 H         1 SUB1        0.000
     49 H          -3.2510    2.7650   24.5280 H         1 SUB1        0.000
     50 H          -4.2810    4.2050   24.2280 H         1 SUB1        0.000
     51 H          -3.8820    6.2730   25.4080 H         1 SUB1        0.150
     52 H          -1.3610    2.8890   26.0290 H         1 SUB1        0.150
     53 H          -2.9640    7.3440   27.4200 H         1 SUB1        0.150
     54 H          -0.4320    3.9700   28.0290 H         1 SUB1        0.150
     55 H          -1.5700    2.4930   22.0960 H         1 SUB1        0.370
     56 H          -0.6430    8.0950   28.2860 H         1 SUB1        0.669
     57 H          -0.7210    8.0240   30.0660 H         1 SUB1        0.669
     58 H          -0.4360    5.6570   30.9020 H         1 SUB1        0.669
     59 H          -1.8240    4.7260   30.2810 H         1 SUB1        0.669
     60 H          -0.6050    5.0090   21.9170 H         1 SUB1        0.000
     61 H          -0.4550    6.7360   21.4460 H         1 SUB1        0.000
     62 H          -1.3050    4.4820   19.5530 H         1 SUB1        0.000
     63 H           0.3570    5.1560   19.6570 H         1 SUB1        0.000
     64 H          -0.9540    6.2810   17.8510 H         1 SUB1        0.000
     65 H          -0.5480    7.4350   19.1650 H         1 SUB1        0.000
     66 H          -3.1670    5.8790   18.8440 H         1 SUB1        0.000
     67 H          -2.9330    7.6350   18.5460 H         1 SUB1        0.000
     68 H          -2.4620    8.0080   20.9190 H         1 SUB1        0.000
     69 H          -4.0250    7.1390   20.7430 H         1 SUB1        0.000
@<TRIPOS>BOND
     1   15   14 1  
     2   16   15 1  
     3   16   17 2  
     4    1    2 2  
     5    1    3 2  
     6    1    5 1  
     7   14    1 1  
     8    5    6 ar 
     9    6    7 ar 
    10    7   13 ar 
    11    8    9 ar 
    12   13    8 ar 
    13    9   10 ar 
    14   11   10 ar 
    15   12   11 ar 
    16   13   12 ar 
    17   19   18 1  
    18   18   28 2  
    19   18   32 am 
    20   19   20 1  
    21   29   19 1  
    22   20   21 1  
    23   21   22 ar 
    24   22   24 ar 
    25   21   23 ar 
    26   23   25 ar 
    27   24   26 ar 
    28   25   26 ar 
    29   26   27 1  
    30   27   30 ar 
    31   27   31 ar 
    32   29   16 am 
    33   32   33 1  
    34   32   37 1  
    35   33   34 1  
    36   34   35 1  
    37   35   36 1  
    38   36   37 1  
    39   12    4 ar 
    40    5    4 ar 
    41   14   38 1  
    42   15   39 1  
    43   15   40 1  
    44    4   41 1  
    45    6   42 1  
    46    7   43 1  
    47    8   44 1  
    48    9   45 1  
    49   10   46 1  
    50   11   47 1  
    51   19   48 1  
    52   20   49 1  
    53   20   50 1  
    54   22   51 1  
    55   23   52 1  
    56   24   53 1  
    57   25   54 1  
    58   29   55 1  
    59   30   56 1  
    60   30   57 1  
    61   31   58 1  
    62   31   59 1  
    63   33   60 1  
    64   33   61 1  
    65   34   62 1  
    66   34   63 1  
    67   35   64 1  
    68   35   65 1  
    69   36   66 1  
    70   36   67 1  
    71   37   68 1  
    72   37   69 1  
@<TRIPOS>SUBSTRUCTURE
     1 SUB1        1 GROUP

### 
### Created by X-TOOL on Tue Dec  2 13:04:55 2003
### 

@<TRIPOS>MOLECULE
1ppc-ligand.1ppc.080
   69    72     1     0     0
SMALL
MMFF94_CHARGES


@<TRIPOS>ATOM
      1 S          -2.0570    3.0870   28.2720 S.o2      1 SUB1        1.447
      2 O1         -2.4610    2.3640   29.5640 O.2       1 SUB1       -0.650
      3 O2         -3.2450    3.1380   27.3160 O.2       1 SUB1       -0.650
      4 C1          0.4820    1.9210   28.2640 C.ar      1 SUB1       -0.150
      5 C2         -0.6620    2.2070   27.5660 C.ar      1 SUB1       -0.009
      6 C3         -0.7420    1.8550   26.2480 C.ar      1 SUB1       -0.150
      7 C4          0.3360    1.2750   25.6200 C.ar      1 SUB1       -0.150
      8 C5          2.5380    0.4020   25.6800 C.ar      1 SUB1       -0.150
      9 C6          3.6790    0.0860   26.3950 C.ar      1 SUB1       -0.150
     10 C7          3.7690    0.4090   27.7360 C.ar      1 SUB1       -0.150
     11 C8          2.7180    1.0450   28.3790 C.ar      1 SUB1       -0.150
     12 C9          1.5650    1.3120   27.6670 C.ar      1 SUB1        0.000
     13 C10         1.4810    1.0030   26.3320 C.ar      1 SUB1        0.000
     14 N          -1.7660    4.6930   28.5690 N.am      1 SUB1       -0.914
     15 CA         -1.4350    5.4480   27.3850 C.3       1 SUB1        0.417
     16 C          -2.6260    5.7380   26.4790 C.2       1 SUB1        0.569
     17 O          -3.5840    6.4310   26.8410 O.2       1 SUB1       -0.570
     18 C          -2.6500    4.9610   22.9210 C.2       1 SUB1        0.569
     19 CA         -3.4620    5.1360   24.2050 C.3       1 SUB1        0.361
     20 CB         -4.5450    4.0500   24.3050 C.3       1 SUB1        0.144
     21 CG         -5.7540    4.4840   25.1080 C.ar      1 SUB1       -0.144
     22 CD1        -6.6140    5.4500   24.6170 C.ar      1 SUB1       -0.150
     23 CD2        -6.0470    3.8510   26.2930 C.ar      1 SUB1       -0.150
     24 CE1        -7.7460    5.8090   25.3250 C.ar      1 SUB1       -0.150
     25 CE2        -7.1760    4.2180   26.9980 C.ar      1 SUB1       -0.150
     26 CZ         -8.0520    5.1830   26.5170 C.ar      1 SUB1       -0.022
     27 CF         -9.2260    5.4810   27.2230 C.cat     1 SUB1        0.731
     28 O          -1.5490    4.4010   22.9470 O.2       1 SUB1       -0.570
     29 N          -2.5280    5.0630   25.3200 N.am      1 SUB1       -0.730
     30 NG1        -9.2260    6.4010   28.2060 N.pl3     1 SUB1       -1.192
     31 NG2       -10.3600    4.8750   26.8530 N.pl3     1 SUB1       -1.192
     32 N1         -3.1580    5.4130   21.7630 N.am      1 SUB1       -0.660
     33 C2         -4.5250    5.8930   21.6310 C.3       1 SUB1        0.300
     34 C3         -4.4530    7.3110   21.1150 C.3       1 SUB1        0.000
     35 C4         -3.8570    7.2600   19.7160 C.3       1 SUB1        0.000
     36 C5         -2.4650    6.6500   19.8510 C.3       1 SUB1        0.000
     37 C6         -2.4740    5.2750   20.4860 C.3       1 SUB1        0.300
     38 H          -1.8150    5.0990   29.4820 H         1 SUB1        0.420
     39 HA1        -0.9970    6.4080   27.6980 H         1 SUB1        0.000
     40 HA2        -0.6930    4.8780   26.8070 H         1 SUB1        0.000
     41 H           0.5380    2.1820   29.3150 H         1 SUB1        0.150
     42 H          -1.6580    2.0320   25.6960 H         1 SUB1        0.150
     43 H           0.2840    1.0340   24.5640 H         1 SUB1        0.150
     44 H           2.4740    0.1790   24.6210 H         1 SUB1        0.150
     45 H           4.5050   -0.4150   25.9030 H         1 SUB1        0.150
     46 H           4.6680    0.1640   28.2890 H         1 SUB1        0.150
     47 H           2.8000    1.3270   29.4230 H         1 SUB1        0.150
     48 H          -3.9500    6.1220   24.2020 H         1 SUB1        0.000
     49 H          -4.1070    3.1630   24.7850 H         1 SUB1        0.000
     50 H          -4.8750    3.7910   23.2880 H         1 SUB1        0.000
     51 H          -6.3990    5.9300   23.6680 H         1 SUB1        0.150
     52 H          -5.3970    3.0700   26.6700 H         1 SUB1        0.150
     53 H          -8.3960    6.5860   24.9410 H         1 SUB1        0.150
     54 H          -7.3840    3.7410   27.9480 H         1 SUB1        0.150
     55 H          -1.7420    4.4530   25.2150 H         1 SUB1        0.370
     56 H          -9.1620    6.1030   29.1900 H         1 SUB1        0.669
     57 H          -9.2880    7.4020   27.9740 H         1 SUB1        0.669
     58 H         -10.3280    3.9410   26.4200 H         1 SUB1        0.669
     59 H         -11.2660    5.3430   27.0010 H         1 SUB1        0.669
     60 H          -5.0280    5.8730   22.6090 H         1 SUB1        0.000
     61 H          -5.0780    5.2610   20.9210 H         1 SUB1        0.000
     62 H          -3.8150    7.9180   21.7730 H         1 SUB1        0.000
     63 H          -5.4620    7.7480   21.0770 H         1 SUB1        0.000
     64 H          -3.7870    8.2740   19.2980 H         1 SUB1        0.000
     65 H          -4.4810    6.6360   19.0610 H         1 SUB1        0.000
     66 H          -1.8490    7.3180   20.4710 H         1 SUB1        0.000
     67 H          -2.0200    6.5690   18.8470 H         1 SUB1        0.000
     68 H          -3.0110    4.5630   19.8420 H         1 SUB1        0.000
     69 H          -1.4440    4.9230   20.6430 H         1 SUB1        0.000
@<TRIPOS>BOND
     1   15   14 1  
     2   16   15 1  
     3   16   17 2  
     4    1    2 2  
     5    1    3 2  
     6    1    5 1  
     7   14    1 1  
     8    5    6 ar 
     9    6    7 ar 
    10    7   13 ar 
    11    8    9 ar 
    12   13    8 ar 
    13    9   10 ar 
    14   11   10 ar 
    15   12   11 ar 
    16   13   12 ar 
    17   19   18 1  
    18   18   28 2  
    19   18   32 am 
    20   19   20 1  
    21   29   19 1  
    22   20   21 1  
    23   21   22 ar 
    24   22   24 ar 
    25   21   23 ar 
    26   23   25 ar 
    27   24   26 ar 
    28   25   26 ar 
    29   26   27 1  
    30   27   30 ar 
    31   27   31 ar 
    32   29   16 am 
    33   32   33 1  
    34   32   37 1  
    35   33   34 1  
    36   34   35 1  
    37   35   36 1  
    38   36   37 1  
    39   12    4 ar 
    40    5    4 ar 
    41   14   38 1  
    42   15   39 1  
    43   15   40 1  
    44    4   41 1  
    45    6   42 1  
    46    7   43 1  
    47    8   44 1  
    48    9   45 1  
    49   10   46 1  
    50   11   47 1  
    51   19   48 1  
    52   20   49 1  
    53   20   50 1  
    54   22   51 1  
    55   23   52 1  
    56   24   53 1  
    57   25   54 1  
    58   29   55 1  
    59   30   56 1  
    60   30   57 1  
    61   31   58 1  
    62   31   59 1  
    63   33   60 1  
    64   33   61 1  
    65   34   62 1  
    66   34   63 1  
    67   35   64 1  
    68   35   65 1  
    69   36   66 1  
    70   36   67 1  
    71   37   68 1  
    72   37   69 1  
@<TRIPOS>SUBSTRUCTURE
     1 SUB1        1 GROUP

### 
### Created by X-TOOL on Tue Dec  2 13:04:55 2003
### 

@<TRIPOS>MOLECULE
1ppc-ligand.1ppc.081
   69    72     1     0     0
SMALL
MMFF94_CHARGES


@<TRIPOS>ATOM
      1 S           0.6870    0.8390   18.0570 S.o2      1 SUB1        1.447
      2 O1          1.4330    1.5190   16.9020 O.2       1 SUB1       -0.650
      3 O2          1.2870    1.2810   19.3890 O.2       1 SUB1       -0.650
      4 C1         -0.2750   -1.7480   17.6210 C.ar      1 SUB1       -0.150
      5 C2          0.8110   -0.9350   17.8190 C.ar      1 SUB1       -0.009
      6 C3          2.0560   -1.4950   17.8930 C.ar      1 SUB1       -0.150
      7 C4          2.2050   -2.8610   17.8280 C.ar      1 SUB1       -0.150
      8 C5          1.2880   -5.0280   17.5540 C.ar      1 SUB1       -0.150
      9 C6          0.1950   -5.8430   17.3230 C.ar      1 SUB1       -0.150
     10 C7         -1.0700   -5.2930   17.2170 C.ar      1 SUB1       -0.150
     11 C8         -1.2550   -3.9250   17.3360 C.ar      1 SUB1       -0.150
     12 C9         -0.1500   -3.1170   17.5200 C.ar      1 SUB1        0.000
     13 C10         1.1040   -3.6640   17.6380 C.ar      1 SUB1        0.000
     14 N          -0.8700    1.4030   18.1590 N.am      1 SUB1       -0.914
     15 CA         -1.6140    0.8470   19.2630 C.3       1 SUB1        0.417
     16 C          -2.0440    1.8730   20.3040 C.2       1 SUB1        0.569
     17 O          -3.2310    2.1550   20.5090 O.2       1 SUB1       -0.570
     18 C          -2.0380    4.5330   21.5110 C.2       1 SUB1        0.569
     19 CA         -1.0150    3.4730   21.9190 C.3       1 SUB1        0.361
     20 CB         -1.4030    2.8470   23.2690 C.3       1 SUB1        0.144
     21 CG         -0.2090    2.3670   24.0690 C.ar      1 SUB1       -0.144
     22 CD1         0.0940    2.9390   25.2920 C.ar      1 SUB1       -0.150
     23 CD2         0.5250    1.2950   23.6180 C.ar      1 SUB1       -0.150
     24 CE1         1.1510    2.4660   26.0460 C.ar      1 SUB1       -0.150
     25 CE2         1.5830    0.8310   24.3740 C.ar      1 SUB1       -0.150
     26 CZ          1.8990    1.3920   25.6050 C.ar      1 SUB1       -0.022
     27 CF          2.9350    0.8500   26.3790 C.cat     1 SUB1        0.731
     28 O          -3.2260    4.4140   21.8310 O.2       1 SUB1       -0.570
     29 N          -0.9790    2.4760   20.8590 N.am      1 SUB1       -0.730
     30 NG1         3.3220    1.4410   27.5250 N.pl3     1 SUB1       -1.192
     31 NG2         3.4840   -0.3050   25.9850 N.pl3     1 SUB1       -1.192
     32 N1         -1.6240    5.6020   20.8120 N.am      1 SUB1       -0.660
     33 C2         -0.2210    5.9040   20.5810 C.3       1 SUB1        0.300
     34 C3         -0.0170    5.9720   19.0860 C.3       1 SUB1        0.000
     35 C4         -0.8220    7.1530   18.5670 C.3       1 SUB1        0.000
     36 C5         -2.2820    6.8800   18.9130 C.3       1 SUB1        0.000
     37 C6         -2.5160    6.6760   20.3960 C.3       1 SUB1        0.300
     38 H          -1.2560    2.0660   17.5170 H         1 SUB1        0.420
     39 HA1        -2.5170    0.3620   18.8620 H         1 SUB1        0.000
     40 HA2        -0.9840    0.0950   19.7600 H         1 SUB1        0.000
     41 H          -1.2600   -1.3020   17.5420 H         1 SUB1        0.150
     42 H           2.9270   -0.8610   18.0030 H         1 SUB1        0.150
     43 H           3.1900   -3.3040   17.9260 H         1 SUB1        0.150
     44 H           2.2780   -5.4570   17.6690 H         1 SUB1        0.150
     45 H           0.3290   -6.9140   17.2230 H         1 SUB1        0.150
     46 H          -1.9230   -5.9380   17.0410 H         1 SUB1        0.150
     47 H          -2.2490   -3.4960   17.2850 H         1 SUB1        0.150
     48 H          -0.0220    3.9380   22.0180 H         1 SUB1        0.000
     49 H          -2.0640    1.9900   23.0790 H         1 SUB1        0.000
     50 H          -1.9410    3.6010   23.8620 H         1 SUB1        0.000
     51 H          -0.5030    3.7650   25.6610 H         1 SUB1        0.150
     52 H           0.2750    0.8190   22.6770 H         1 SUB1        0.150
     53 H           1.3930    2.9400   26.9890 H         1 SUB1        0.150
     54 H           2.1810    0.0090   23.9980 H         1 SUB1        0.150
     55 H          -0.0780    2.2160   20.5120 H         1 SUB1        0.370
     56 H           3.8050    2.3500   27.4970 H         1 SUB1        0.669
     57 H           3.1360    0.9840   28.4290 H         1 SUB1        0.669
     58 H           4.3850   -0.6090   26.3820 H         1 SUB1        0.669
     59 H           3.0070   -0.8890   25.2840 H         1 SUB1        0.669
     60 H           0.4110    5.1130   21.0130 H         1 SUB1        0.000
     61 H           0.0370    6.8700   21.0410 H         1 SUB1        0.000
     62 H          -0.3690    5.0410   18.6170 H         1 SUB1        0.000
     63 H           1.0500    6.1160   18.8590 H         1 SUB1        0.000
     64 H          -0.7020    7.2430   17.4770 H         1 SUB1        0.000
     65 H          -0.4860    8.0810   19.0500 H         1 SUB1        0.000
     66 H          -2.6050    5.9740   18.3800 H         1 SUB1        0.000
     67 H          -2.8870    7.7360   18.5790 H         1 SUB1        0.000
     68 H          -2.2840    7.5980   20.9480 H         1 SUB1        0.000
     69 H          -3.5630    6.3920   20.5790 H         1 SUB1        0.000
@<TRIPOS>BOND
     1   15   14 1  
     2   16   15 1  
     3   16   17 2  
     4    1    2 2  
     5    1    3 2  
     6    1    5 1  
     7   14    1 1  
     8    5    6 ar 
     9    6    7 ar 
    10    7   13 ar 
    11    8    9 ar 
    12   13    8 ar 
    13    9   10 ar 
    14   11   10 ar 
    15   12   11 ar 
    16   13   12 ar 
    17   19   18 1  
    18   18   28 2  
    19   18   32 am 
    20   19   20 1  
    21   29   19 1  
    22   20   21 1  
    23   21   22 ar 
    24   22   24 ar 
    25   21   23 ar 
    26   23   25 ar 
    27   24   26 ar 
    28   25   26 ar 
    29   26   27 1  
    30   27   30 ar 
    31   27   31 ar 
    32   29   16 am 
    33   32   33 1  
    34   32   37 1  
    35   33   34 1  
    36   34   35 1  
    37   35   36 1  
    38   36   37 1  
    39   12    4 ar 
    40    5    4 ar 
    41   14   38 1  
    42   15   39 1  
    43   15   40 1  
    44    4   41 1  
    45    6   42 1  
    46    7   43 1  
    47    8   44 1  
    48    9   45 1  
    49   10   46 1  
    50   11   47 1  
    51   19   48 1  
    52   20   49 1  
    53   20   50 1  
    54   22   51 1  
    55   23   52 1  
    56   24   53 1  
    57   25   54 1  
    58   29   55 1  
    59   30   56 1  
    60   30   57 1  
    61   31   58 1  
    62   31   59 1  
    63   33   60 1  
    64   33   61 1  
    65   34   62 1  
    66   34   63 1  
    67   35   64 1  
    68   35   65 1  
    69   36   66 1  
    70   36   67 1  
    71   37   68 1  
    72   37   69 1  
@<TRIPOS>SUBSTRUCTURE
     1 SUB1        1 GROUP

### 
### Created by X-TOOL on Tue Dec  2 13:04:55 2003
### 

@<TRIPOS>MOLECULE
1ppc-ligand.1ppc.082
   69    72     1     0     0
SMALL
MMFF94_CHARGES


@<TRIPOS>ATOM
      1 S          -1.8140    1.2840   20.9700 S.o2      1 SUB1        1.447
      2 O1         -2.7450    0.9310   22.1370 O.2       1 SUB1       -0.650
      3 O2         -0.4340    0.6790   21.2080 O.2       1 SUB1       -0.650
      4 C1         -2.8510    3.8500   20.5870 C.ar      1 SUB1       -0.150
      5 C2         -1.7520    3.0720   20.8420 C.ar      1 SUB1       -0.009
      6 C3         -0.5270    3.6690   20.9560 C.ar      1 SUB1       -0.150
      7 C4         -0.3960    5.0240   20.7590 C.ar      1 SUB1       -0.150
      8 C5         -1.3490    7.1500   20.3250 C.ar      1 SUB1       -0.150
      9 C6         -2.4640    7.9360   20.1000 C.ar      1 SUB1       -0.150
     10 C7         -3.7150    7.3550   20.0080 C.ar      1 SUB1       -0.150
     11 C8         -3.8670    5.9840   20.1460 C.ar      1 SUB1       -0.150
     12 C9         -2.7520    5.2150   20.4170 C.ar      1 SUB1        0.000
     13 C10        -1.5090    5.7900   20.4960 C.ar      1 SUB1        0.000
     14 N          -2.3060    0.5210   19.5810 N.am      1 SUB1       -0.914
     15 CA         -1.4410    0.7630   18.4520 C.3       1 SUB1        0.417
     16 C          -0.0660    0.1160   18.5710 C.2       1 SUB1        0.569
     17 O           0.9600    0.7710   18.7900 O.2       1 SUB1       -0.570
     18 C           0.3930   -3.5370   18.5250 C.2       1 SUB1        0.569
     19 CA          0.9870   -2.1370   18.3640 C.3       1 SUB1        0.361
     20 CB          1.8550   -2.0670   17.0980 C.3       1 SUB1        0.144
     21 CG          1.0450   -2.0960   15.8170 C.ar      1 SUB1       -0.144
     22 CD1         0.5130   -0.9300   15.2950 C.ar      1 SUB1       -0.150
     23 CD2         0.9140   -3.2750   15.1220 C.ar      1 SUB1       -0.150
     24 CE1        -0.1800   -0.9480   14.1000 C.ar      1 SUB1       -0.150
     25 CE2         0.2160   -3.2870   13.9310 C.ar      1 SUB1       -0.150
     26 CZ         -0.3220   -2.1250   13.3920 C.ar      1 SUB1       -0.022
     27 CF         -0.9640   -2.1600   12.1450 C.cat     1 SUB1        0.731
     28 O          -0.5580   -3.8980   17.8240 O.2       1 SUB1       -0.570
     29 N          -0.1250   -1.1990   18.3020 N.am      1 SUB1       -0.730
     30 NG1        -2.0870   -2.8810   11.9680 N.pl3     1 SUB1       -1.192
     31 NG2        -0.4690   -1.4090   11.1550 N.pl3     1 SUB1       -1.192
     32 N1          0.9290   -4.3720   19.4300 N.am      1 SUB1       -0.660
     33 C2          2.1670   -4.0860   20.1360 C.3       1 SUB1        0.300
     34 C3          1.8580   -4.1240   21.6140 C.3       1 SUB1        0.000
     35 C4          1.4600   -5.5490   21.9630 C.3       1 SUB1        0.000
     36 C5          0.2240   -5.8800   21.1320 C.3       1 SUB1        0.000
     37 C6          0.4490   -5.7300   19.6420 C.3       1 SUB1        0.300
     38 H          -3.1240   -0.0520   19.5310 H         1 SUB1        0.420
     39 HA1        -1.9310    0.3690   17.5490 H         1 SUB1        0.000
     40 HA2        -1.3030    1.8500   18.3490 H         1 SUB1        0.000
     41 H          -3.8250    3.3800   20.5170 H         1 SUB1        0.150
     42 H           0.3440    3.0730   21.2030 H         1 SUB1        0.150
     43 H           0.5830    5.4880   20.8120 H         1 SUB1        0.150
     44 H          -0.3610    7.5960   20.3670 H         1 SUB1        0.150
     45 H          -2.3570    9.0100   19.9950 H         1 SUB1        0.150
     46 H          -4.5840    7.9760   19.8270 H         1 SUB1        0.150
     47 H          -4.8430    5.5240   20.0430 H         1 SUB1        0.150
     48 H           1.6150   -1.9010   19.2370 H         1 SUB1        0.000
     49 H           2.5420   -2.9260   17.0970 H         1 SUB1        0.000
     50 H           2.4360   -1.1340   17.1230 H         1 SUB1        0.000
     51 H           0.6410    0.0050   15.8290 H         1 SUB1        0.150
     52 H           1.3560   -4.1880   15.5060 H         1 SUB1        0.150
     53 H          -0.6150   -0.0320   13.7170 H         1 SUB1        0.150
     54 H           0.0840   -4.2250   13.4040 H         1 SUB1        0.150
     55 H          -1.0150   -1.5690   18.0330 H         1 SUB1        0.370
     56 H          -2.5410   -3.3330   12.7740 H         1 SUB1        0.669
     57 H          -2.4920   -2.9800   11.0260 H         1 SUB1        0.669
     58 H          -0.4970   -0.3810   11.2240 H         1 SUB1        0.669
     59 H          -0.0590   -1.8580   10.3240 H         1 SUB1        0.669
     60 H           2.5410   -3.0910   19.8540 H         1 SUB1        0.000
     61 H           2.9250   -4.8450   19.8900 H         1 SUB1        0.000
     62 H           1.0300   -3.4360   21.8420 H         1 SUB1        0.000
     63 H           2.7470   -3.8310   22.1910 H         1 SUB1        0.000
     64 H           1.2260   -5.6260   23.0350 H         1 SUB1        0.000
     65 H           2.2780   -6.2420   21.7160 H         1 SUB1        0.000
     66 H          -0.5900   -5.2050   21.4320 H         1 SUB1        0.000
     67 H          -0.0690   -6.9210   21.3380 H         1 SUB1        0.000
     68 H           1.1990   -6.4570   19.2960 H         1 SUB1        0.000
     69 H          -0.4930   -5.8900   19.0970 H         1 SUB1        0.000
@<TRIPOS>BOND
     1   15   14 1  
     2   16   15 1  
     3   16   17 2  
     4    1    2 2  
     5    1    3 2  
     6    1    5 1  
     7   14    1 1  
     8    5    6 ar 
     9    6    7 ar 
    10    7   13 ar 
    11    8    9 ar 
    12   13    8 ar 
    13    9   10 ar 
    14   11   10 ar 
    15   12   11 ar 
    16   13   12 ar 
    17   19   18 1  
    18   18   28 2  
    19   18   32 am 
    20   19   20 1  
    21   29   19 1  
    22   20   21 1  
    23   21   22 ar 
    24   22   24 ar 
    25   21   23 ar 
    26   23   25 ar 
    27   24   26 ar 
    28   25   26 ar 
    29   26   27 1  
    30   27   30 ar 
    31   27   31 ar 
    32   29   16 am 
    33   32   33 1  
    34   32   37 1  
    35   33   34 1  
    36   34   35 1  
    37   35   36 1  
    38   36   37 1  
    39   12    4 ar 
    40    5    4 ar 
    41   14   38 1  
    42   15   39 1  
    43   15   40 1  
    44    4   41 1  
    45    6   42 1  
    46    7   43 1  
    47    8   44 1  
    48    9   45 1  
    49   10   46 1  
    50   11   47 1  
    51   19   48 1  
    52   20   49 1  
    53   20   50 1  
    54   22   51 1  
    55   23   52 1  
    56   24   53 1  
    57   25   54 1  
    58   29   55 1  
    59   30   56 1  
    60   30   57 1  
    61   31   58 1  
    62   31   59 1  
    63   33   60 1  
    64   33   61 1  
    65   34   62 1  
    66   34   63 1  
    67   35   64 1  
    68   35   65 1  
    69   36   66 1  
    70   36   67 1  
    71   37   68 1  
    72   37   69 1  
@<TRIPOS>SUBSTRUCTURE
     1 SUB1        1 GROUP

### 
### Created by X-TOOL on Tue Dec  2 13:04:55 2003
### 

@<TRIPOS>MOLECULE
1ppc-ligand.1ppc.083
   69    72     1     0     0
SMALL
MMFF94_CHARGES


@<TRIPOS>ATOM
      1 S          -1.6510    4.5090   24.8340 S.o2      1 SUB1        1.447
      2 O1         -1.7150    5.5820   25.9290 O.2       1 SUB1       -0.650
      3 O2         -1.9970    5.1290   23.4830 O.2       1 SUB1       -0.650
      4 C1         -2.9330    2.7290   26.5640 C.ar      1 SUB1       -0.150
      5 C2         -2.7910    3.1990   25.2850 C.ar      1 SUB1       -0.009
      6 C3         -3.5100    2.6170   24.2780 C.ar      1 SUB1       -0.150
      7 C4         -4.3190    1.5360   24.5420 C.ar      1 SUB1       -0.150
      8 C5         -5.2800   -0.0020   26.0670 C.ar      1 SUB1       -0.150
      9 C6         -5.4460   -0.4530   27.3640 C.ar      1 SUB1       -0.150
     10 C7         -4.7480    0.1410   28.4000 C.ar      1 SUB1       -0.150
     11 C8         -3.8830    1.1950   28.1530 C.ar      1 SUB1       -0.150
     12 C9         -3.7620    1.6680   26.8610 C.ar      1 SUB1        0.000
     13 C10        -4.4440    1.0700   25.8310 C.ar      1 SUB1        0.000
     14 N          -0.0880    4.0000   24.6060 N.am      1 SUB1       -0.914
     15 CA          0.0540    3.0300   23.5480 C.3       1 SUB1        0.417
     16 C          -0.2910    3.5630   22.1630 C.2       1 SUB1        0.569
     17 O           0.4690    4.3030   21.5270 O.2       1 SUB1       -0.570
     18 C          -2.5540    2.1760   19.8890 C.2       1 SUB1        0.569
     19 CA         -2.1820    3.5110   20.5340 C.3       1 SUB1        0.361
     20 CB         -3.4350    4.3810   20.7260 C.3       1 SUB1        0.144
     21 CG         -3.2340    5.8200   20.2960 C.ar      1 SUB1       -0.144
     22 CD1        -4.0130    6.3690   19.2930 C.ar      1 SUB1       -0.150
     23 CD2        -2.3320    6.6110   20.9670 C.ar      1 SUB1       -0.150
     24 CE1        -3.8670    7.6970   18.9370 C.ar      1 SUB1       -0.150
     25 CE2        -2.1870    7.9340   20.6030 C.ar      1 SUB1       -0.150
     26 CZ         -2.9640    8.5030   19.6010 C.ar      1 SUB1       -0.022
     27 CF         -2.8400    9.8680   19.3050 C.cat     1 SUB1        0.731
     28 O          -3.7340    1.8130   19.8370 O.2       1 SUB1       -0.570
     29 N          -1.5390    3.2130   21.8060 N.am      1 SUB1       -0.730
     30 NG1        -3.9210   10.6080   18.9970 N.pl3     1 SUB1       -1.192
     31 NG2        -1.6300   10.4310   19.4000 N.pl3     1 SUB1       -1.192
     32 N1         -1.5820    1.4110   19.3680 N.am      1 SUB1       -0.660
     33 C2         -0.2100    1.8680   19.2140 C.3       1 SUB1        0.300
     34 C3          0.6720    0.9020   19.9700 C.3       1 SUB1        0.000
     35 C4          0.5680   -0.4490   19.2800 C.3       1 SUB1        0.000
     36 C5         -0.8970   -0.8700   19.3480 C.3       1 SUB1        0.000
     37 C6         -1.8370    0.1350   18.7140 C.3       1 SUB1        0.300
     38 H           0.6810    4.3350   25.1500 H         1 SUB1        0.420
     39 HA1         1.0980    2.6830   23.5350 H         1 SUB1        0.000
     40 HA2        -0.6110    2.1810   23.7660 H         1 SUB1        0.000
     41 H          -2.3790    3.2040   27.3650 H         1 SUB1        0.150
     42 H          -3.4430    3.0080   23.2700 H         1 SUB1        0.150
     43 H          -4.8580    1.0510   23.7350 H         1 SUB1        0.150
     44 H          -5.8010   -0.4840   25.2480 H         1 SUB1        0.150
     45 H          -6.1240   -1.2740   27.5690 H         1 SUB1        0.150
     46 H          -4.8790   -0.2220   29.4130 H         1 SUB1        0.150
     47 H          -3.3120    1.6400   28.9600 H         1 SUB1        0.150
     48 H          -1.4740    4.0490   19.8850 H         1 SUB1        0.000
     49 H          -3.7080    4.3690   21.7900 H         1 SUB1        0.000
     50 H          -4.2540    3.9490   20.1320 H         1 SUB1        0.000
     51 H          -4.7460    5.7540   18.7830 H         1 SUB1        0.150
     52 H          -1.7400    6.1980   21.7770 H         1 SUB1        0.150
     53 H          -4.4650    8.1070   18.1320 H         1 SUB1        0.150
     54 H          -1.4490    8.5450   21.1110 H         1 SUB1        0.150
     55 H          -2.0760    2.7000   22.4760 H         1 SUB1        0.370
     56 H          -4.8440   10.1590   18.9060 H         1 SUB1        0.669
     57 H          -3.8260   11.6230   18.8530 H         1 SUB1        0.669
     58 H          -1.5170   11.4420   19.2400 H         1 SUB1        0.669
     59 H          -0.8100    9.8530   19.6330 H         1 SUB1        0.669
     60 H          -0.1020    2.8810   19.6280 H         1 SUB1        0.000
     61 H           0.0660    1.8760   18.1490 H         1 SUB1        0.000
     62 H           0.3290    0.8190   21.0120 H         1 SUB1        0.000
     63 H           1.7140    1.2530   19.9530 H         1 SUB1        0.000
     64 H           1.1980   -1.1880   19.7980 H         1 SUB1        0.000
     65 H           0.8890   -0.3650   18.2320 H         1 SUB1        0.000
     66 H          -1.1770   -0.9920   20.4040 H         1 SUB1        0.000
     67 H          -1.0100   -1.8320   18.8250 H         1 SUB1        0.000
     68 H          -1.6370    0.2140   17.6350 H         1 SUB1        0.000
     69 H          -2.8820   -0.1710   18.8720 H         1 SUB1        0.000
@<TRIPOS>BOND
     1   15   14 1  
     2   16   15 1  
     3   16   17 2  
     4    1    2 2  
     5    1    3 2  
     6    1    5 1  
     7   14    1 1  
     8    5    6 ar 
     9    6    7 ar 
    10    7   13 ar 
    11    8    9 ar 
    12   13    8 ar 
    13    9   10 ar 
    14   11   10 ar 
    15   12   11 ar 
    16   13   12 ar 
    17   19   18 1  
    18   18   28 2  
    19   18   32 am 
    20   19   20 1  
    21   29   19 1  
    22   20   21 1  
    23   21   22 ar 
    24   22   24 ar 
    25   21   23 ar 
    26   23   25 ar 
    27   24   26 ar 
    28   25   26 ar 
    29   26   27 1  
    30   27   30 ar 
    31   27   31 ar 
    32   29   16 am 
    33   32   33 1  
    34   32   37 1  
    35   33   34 1  
    36   34   35 1  
    37   35   36 1  
    38   36   37 1  
    39   12    4 ar 
    40    5    4 ar 
    41   14   38 1  
    42   15   39 1  
    43   15   40 1  
    44    4   41 1  
    45    6   42 1  
    46    7   43 1  
    47    8   44 1  
    48    9   45 1  
    49   10   46 1  
    50   11   47 1  
    51   19   48 1  
    52   20   49 1  
    53   20   50 1  
    54   22   51 1  
    55   23   52 1  
    56   24   53 1  
    57   25   54 1  
    58   29   55 1  
    59   30   56 1  
    60   30   57 1  
    61   31   58 1  
    62   31   59 1  
    63   33   60 1  
    64   33   61 1  
    65   34   62 1  
    66   34   63 1  
    67   35   64 1  
    68   35   65 1  
    69   36   66 1  
    70   36   67 1  
    71   37   68 1  
    72   37   69 1  
@<TRIPOS>SUBSTRUCTURE
     1 SUB1        1 GROUP

### 
### Created by X-TOOL on Tue Dec  2 13:04:55 2003
### 

@<TRIPOS>MOLECULE
1ppc-ligand.1ppc.084
   69    72     1     0     0
SMALL
MMFF94_CHARGES


@<TRIPOS>ATOM
      1 S          -3.7950    5.5240   28.7500 S.o2      1 SUB1        1.447
      2 O1         -4.9310    6.3910   28.1920 O.2       1 SUB1       -0.650
      3 O2         -4.3670    4.4650   29.6880 O.2       1 SUB1       -0.650
      4 C1         -2.7860    7.0110   30.8900 C.ar      1 SUB1       -0.150
      5 C2         -2.6380    6.6100   29.5880 C.ar      1 SUB1       -0.009
      6 C3         -1.5880    7.0950   28.8580 C.ar      1 SUB1       -0.150
      7 C4         -0.7290    8.0170   29.4100 C.ar      1 SUB1       -0.150
      8 C5         -0.0050    9.3240   31.2490 C.ar      1 SUB1       -0.150
      9 C6         -0.1380    9.7010   32.5730 C.ar      1 SUB1       -0.150
     10 C7         -1.1770    9.2010   33.3360 C.ar      1 SUB1       -0.150
     11 C8         -2.0900    8.3140   32.7870 C.ar      1 SUB1       -0.150
     12 C9         -1.9200    7.9090   31.4780 C.ar      1 SUB1        0.000
     13 C10        -0.8960    8.4150   30.7170 C.ar      1 SUB1        0.000
     14 N          -3.1150    4.6080   27.5460 N.am      1 SUB1       -0.914
     15 CA         -2.0740    3.7230   28.0120 C.3       1 SUB1        0.417
     16 C          -1.3270    3.0000   26.8980 C.2       1 SUB1        0.569
     17 O          -1.0500    1.7950   26.9560 O.2       1 SUB1       -0.570
     18 C          -1.1110    2.4890   23.9700 C.2       1 SUB1        0.569
     19 CA         -0.2420    3.5080   24.7080 C.3       1 SUB1        0.361
     20 CB         -0.0020    4.7440   23.8260 C.3       1 SUB1        0.144
     21 CG         -1.2270    5.1640   23.0400 C.ar      1 SUB1       -0.144
     22 CD1        -1.2330    5.0990   21.6580 C.ar      1 SUB1       -0.150
     23 CD2        -2.3730    5.5270   23.7090 C.ar      1 SUB1       -0.150
     24 CE1        -2.3680    5.4310   20.9440 C.ar      1 SUB1       -0.150
     25 CE2        -3.5020    5.8630   22.9890 C.ar      1 SUB1       -0.150
     26 CZ         -3.5250    5.8000   21.6010 C.ar      1 SUB1       -0.022
     27 CF         -4.7090    6.0790   20.9050 C.cat     1 SUB1        0.731
     28 O          -2.3380    2.4880   24.1170 O.2       1 SUB1       -0.570
     29 N          -0.9380    3.8580   25.9390 N.am      1 SUB1       -0.730
     30 NG1        -4.7090    6.9160   19.8500 N.pl3     1 SUB1       -1.192
     31 NG2        -5.8280    5.4440   21.2740 N.pl3     1 SUB1       -1.192
     32 N1         -0.5210    1.6060   23.1480 N.am      1 SUB1       -0.660
     33 C2          0.8820    1.6840   22.7740 C.3       1 SUB1        0.300
     34 C3          1.5260    0.3790   23.1770 C.3       1 SUB1        0.000
     35 C4          0.8980   -0.7220   22.3360 C.3       1 SUB1        0.000
     36 C5         -0.5960   -0.7220   22.6510 C.3       1 SUB1        0.000
     37 C6         -1.2630    0.6110   22.3840 C.3       1 SUB1        0.300
     38 H          -3.3990    4.6640   26.5890 H         1 SUB1        0.420
     39 HA1        -1.3470    4.3170   28.5860 H         1 SUB1        0.000
     40 HA2        -2.5310    2.9680   28.6680 H         1 SUB1        0.000
     41 H          -3.6060    6.6100   31.4750 H         1 SUB1        0.150
     42 H          -1.4330    6.7520   27.8420 H         1 SUB1        0.150
     43 H           0.0790    8.4290   28.8160 H         1 SUB1        0.150
     44 H           0.7890    9.7370   30.6370 H         1 SUB1        0.150
     45 H           0.5740   10.3900   33.0130 H         1 SUB1        0.150
     46 H          -1.2780    9.5050   34.3710 H         1 SUB1        0.150
     47 H          -2.9230    7.9460   33.3750 H         1 SUB1        0.150
     48 H           0.7300    3.0550   24.9540 H         1 SUB1        0.000
     49 H           0.8070    4.5160   23.1170 H         1 SUB1        0.000
     50 H           0.3020    5.5810   24.4720 H         1 SUB1        0.000
     51 H          -0.3390    4.7840   21.1320 H         1 SUB1        0.150
     52 H          -2.3890    5.5490   24.7930 H         1 SUB1        0.150
     53 H          -2.3500    5.4020   19.8610 H         1 SUB1        0.150
     54 H          -4.3910    6.1830   23.5190 H         1 SUB1        0.150
     55 H          -1.1430    4.8250   26.0850 H         1 SUB1        0.370
     56 H          -4.9610    7.9060   19.9780 H         1 SUB1        0.669
     57 H          -4.4570    6.5660   18.9150 H         1 SUB1        0.669
     58 H          -6.7410    5.9120   21.1830 H         1 SUB1        0.669
     59 H          -5.7760    4.4860   21.6490 H         1 SUB1        0.669
     60 H           1.3650    2.5210   23.2990 H         1 SUB1        0.000
     61 H           0.9740    1.8310   21.6880 H         1 SUB1        0.000
     62 H           1.3450    0.1850   24.2450 H         1 SUB1        0.000
     63 H           2.6090    0.4210   22.9900 H         1 SUB1        0.000
     64 H           1.3390   -1.6950   22.5940 H         1 SUB1        0.000
     65 H           1.0580   -0.5190   21.2670 H         1 SUB1        0.000
     66 H          -0.7280   -0.9730   23.7140 H         1 SUB1        0.000
     67 H          -1.0840   -1.4880   22.0300 H         1 SUB1        0.000
     68 H          -1.2220    0.8490   21.3110 H         1 SUB1        0.000
     69 H          -2.3110    0.5840   22.7140 H         1 SUB1        0.000
@<TRIPOS>BOND
     1   15   14 1  
     2   16   15 1  
     3   16   17 2  
     4    1    2 2  
     5    1    3 2  
     6    1    5 1  
     7   14    1 1  
     8    5    6 ar 
     9    6    7 ar 
    10    7   13 ar 
    11    8    9 ar 
    12   13    8 ar 
    13    9   10 ar 
    14   11   10 ar 
    15   12   11 ar 
    16   13   12 ar 
    17   19   18 1  
    18   18   28 2  
    19   18   32 am 
    20   19   20 1  
    21   29   19 1  
    22   20   21 1  
    23   21   22 ar 
    24   22   24 ar 
    25   21   23 ar 
    26   23   25 ar 
    27   24   26 ar 
    28   25   26 ar 
    29   26   27 1  
    30   27   30 ar 
    31   27   31 ar 
    32   29   16 am 
    33   32   33 1  
    34   32   37 1  
    35   33   34 1  
    36   34   35 1  
    37   35   36 1  
    38   36   37 1  
    39   12    4 ar 
    40    5    4 ar 
    41   14   38 1  
    42   15   39 1  
    43   15   40 1  
    44    4   41 1  
    45    6   42 1  
    46    7   43 1  
    47    8   44 1  
    48    9   45 1  
    49   10   46 1  
    50   11   47 1  
    51   19   48 1  
    52   20   49 1  
    53   20   50 1  
    54   22   51 1  
    55   23   52 1  
    56   24   53 1  
    57   25   54 1  
    58   29   55 1  
    59   30   56 1  
    60   30   57 1  
    61   31   58 1  
    62   31   59 1  
    63   33   60 1  
    64   33   61 1  
    65   34   62 1  
    66   34   63 1  
    67   35   64 1  
    68   35   65 1  
    69   36   66 1  
    70   36   67 1  
    71   37   68 1  
    72   37   69 1  
@<TRIPOS>SUBSTRUCTURE
     1 SUB1        1 GROUP

### 
### Created by X-TOOL on Tue Dec  2 13:04:55 2003
### 

@<TRIPOS>MOLECULE
1ppc-ligand.1ppc.085
   69    72     1     0     0
SMALL
MMFF94_CHARGES


@<TRIPOS>ATOM
      1 S          -4.7640    3.8140   22.3360 S.o2      1 SUB1        1.447
      2 O1         -4.1680    2.5090   21.7930 O.2       1 SUB1       -0.650
      3 O2         -6.2870    3.7290   22.3260 O.2       1 SUB1       -0.650
      4 C1         -3.0200    5.0770   20.5570 C.ar      1 SUB1       -0.150
      5 C2         -4.1580    5.1590   21.3150 C.ar      1 SUB1       -0.009
      6 C3         -4.8530    6.3350   21.3470 C.ar      1 SUB1       -0.150
      7 C4         -4.3800    7.4370   20.6720 C.ar      1 SUB1       -0.150
      8 C5         -2.7930    8.4570   19.2390 C.ar      1 SUB1       -0.150
      9 C6         -1.6620    8.3620   18.4490 C.ar      1 SUB1       -0.150
     10 C7         -0.9600    7.1730   18.3820 C.ar      1 SUB1       -0.150
     11 C8         -1.3840    6.0640   19.0970 C.ar      1 SUB1       -0.150
     12 C9         -2.5410    6.1570   19.8450 C.ar      1 SUB1        0.000
     13 C10        -3.2300    7.3410   19.9220 C.ar      1 SUB1        0.000
     14 N          -4.4240    3.9820   23.9520 N.am      1 SUB1       -0.914
     15 CA         -5.0050    5.1640   24.5430 C.3       1 SUB1        0.417
     16 C          -6.1470    4.8780   25.5110 C.2       1 SUB1        0.569
     17 O          -6.0190    4.9780   26.7380 O.2       1 SUB1       -0.570
     18 C          -9.5890    4.8360   24.6810 C.2       1 SUB1        0.569
     19 CA         -8.5120    4.0830   25.4630 C.3       1 SUB1        0.361
     20 CB         -8.7800    2.5700   25.4210 C.3       1 SUB1        0.144
     21 CG         -8.0310    1.8010   26.4900 C.ar      1 SUB1       -0.144
     22 CD1        -8.5600    1.6650   27.7610 C.ar      1 SUB1       -0.150
     23 CD2        -6.8580    1.1580   26.1690 C.ar      1 SUB1       -0.150
     24 CE1        -7.9020    0.9200   28.7210 C.ar      1 SUB1       -0.150
     25 CE2        -6.2030    0.4190   27.1340 C.ar      1 SUB1       -0.150
     26 CZ         -6.7230    0.2710   28.4140 C.ar      1 SUB1       -0.022
     27 CF         -6.0680   -0.5450   29.3480 C.cat     1 SUB1        0.731
     28 O          -9.5580    4.8700   23.4460 O.2       1 SUB1       -0.570
     29 N          -7.2290    4.4150   24.8610 N.am      1 SUB1       -0.730
     30 NG1        -6.1950   -1.8840   29.3030 N.pl3     1 SUB1       -1.192
     31 NG2        -5.2620    0.0370   30.2440 N.pl3     1 SUB1       -1.192
     32 N1        -10.5760    5.4470   25.3560 N.am      1 SUB1       -0.660
     33 C2        -10.7850    5.2760   26.7840 C.3       1 SUB1        0.300
     34 C3        -10.7230    6.6470   27.4140 C.3       1 SUB1        0.000
     35 C4        -11.9000    7.4500   26.8810 C.3       1 SUB1        0.000
     36 C5        -11.7320    7.5290   25.3670 C.3       1 SUB1        0.000
     37 C6        -11.6580    6.1700   24.7020 C.3       1 SUB1        0.300
     38 H          -3.8700    3.3280   24.4660 H         1 SUB1        0.420
     39 HA1        -4.2150    5.7010   25.0890 H         1 SUB1        0.000
     40 HA2        -5.3900    5.8010   23.7340 H         1 SUB1        0.000
     41 H          -2.4800    4.1380   20.5150 H         1 SUB1        0.150
     42 H          -5.7800    6.4010   21.9050 H         1 SUB1        0.150
     43 H          -4.9120    8.3800   20.7320 H         1 SUB1        0.150
     44 H          -3.3290    9.3960   19.3200 H         1 SUB1        0.150
     45 H          -1.3240    9.2230   17.8810 H         1 SUB1        0.150
     46 H          -0.0710    7.1070   17.7650 H         1 SUB1        0.150
     47 H          -0.8170    5.1410   19.0700 H         1 SUB1        0.150
     48 H          -8.5200    4.4140   26.5130 H         1 SUB1        0.000
     49 H          -8.4740    2.1880   24.4360 H         1 SUB1        0.000
     50 H          -9.8580    2.4010   25.5610 H         1 SUB1        0.000
     51 H          -9.4990    2.1480   28.0060 H         1 SUB1        0.150
     52 H          -6.4510    1.2310   25.1670 H         1 SUB1        0.150
     53 H          -8.3150    0.8450   29.7200 H         1 SUB1        0.150
     54 H          -5.2610   -0.0560   26.8870 H         1 SUB1        0.150
     55 H          -7.1440    4.2860   23.8730 H         1 SUB1        0.370
     56 H          -7.1310   -2.3130   29.2970 H         1 SUB1        0.669
     57 H          -5.3550   -2.4800   29.2760 H         1 SUB1        0.669
     58 H          -4.3180    0.3430   29.9670 H         1 SUB1        0.669
     59 H          -5.5850    0.1790   31.2110 H         1 SUB1        0.669
     60 H          -9.9980    4.6320   27.2050 H         1 SUB1        0.000
     61 H         -11.7690    4.8200   26.9690 H         1 SUB1        0.000
     62 H          -9.7780    7.1420   27.1440 H         1 SUB1        0.000
     63 H         -10.7920    6.5610   28.5080 H         1 SUB1        0.000
     64 H         -11.8970    8.4600   27.3150 H         1 SUB1        0.000
     65 H         -12.8450    6.9460   27.1310 H         1 SUB1        0.000
     66 H         -10.8040    8.0770   25.1460 H         1 SUB1        0.000
     67 H         -12.5890    8.0770   24.9480 H         1 SUB1        0.000
     68 H         -12.6080    5.6310   24.8320 H         1 SUB1        0.000
     69 H         -11.4450    6.2830   23.6290 H         1 SUB1        0.000
@<TRIPOS>BOND
     1   15   14 1  
     2   16   15 1  
     3   16   17 2  
     4    1    2 2  
     5    1    3 2  
     6    1    5 1  
     7   14    1 1  
     8    5    6 ar 
     9    6    7 ar 
    10    7   13 ar 
    11    8    9 ar 
    12   13    8 ar 
    13    9   10 ar 
    14   11   10 ar 
    15   12   11 ar 
    16   13   12 ar 
    17   19   18 1  
    18   18   28 2  
    19   18   32 am 
    20   19   20 1  
    21   29   19 1  
    22   20   21 1  
    23   21   22 ar 
    24   22   24 ar 
    25   21   23 ar 
    26   23   25 ar 
    27   24   26 ar 
    28   25   26 ar 
    29   26   27 1  
    30   27   30 ar 
    31   27   31 ar 
    32   29   16 am 
    33   32   33 1  
    34   32   37 1  
    35   33   34 1  
    36   34   35 1  
    37   35   36 1  
    38   36   37 1  
    39   12    4 ar 
    40    5    4 ar 
    41   14   38 1  
    42   15   39 1  
    43   15   40 1  
    44    4   41 1  
    45    6   42 1  
    46    7   43 1  
    47    8   44 1  
    48    9   45 1  
    49   10   46 1  
    50   11   47 1  
    51   19   48 1  
    52   20   49 1  
    53   20   50 1  
    54   22   51 1  
    55   23   52 1  
    56   24   53 1  
    57   25   54 1  
    58   29   55 1  
    59   30   56 1  
    60   30   57 1  
    61   31   58 1  
    62   31   59 1  
    63   33   60 1  
    64   33   61 1  
    65   34   62 1  
    66   34   63 1  
    67   35   64 1  
    68   35   65 1  
    69   36   66 1  
    70   36   67 1  
    71   37   68 1  
    72   37   69 1  
@<TRIPOS>SUBSTRUCTURE
     1 SUB1        1 GROUP

### 
### Created by X-TOOL on Tue Dec  2 13:04:55 2003
### 

@<TRIPOS>MOLECULE
1ppc-ligand.1ppc.086
   69    72     1     0     0
SMALL
MMFF94_CHARGES


@<TRIPOS>ATOM
      1 S          -1.5770    4.8810   28.5080 S.o2      1 SUB1        1.447
      2 O1         -0.6130    5.9710   28.9920 O.2       1 SUB1       -0.650
      3 O2         -2.7120    4.7120   29.5140 O.2       1 SUB1       -0.650
      4 C1         -0.3520    2.5070   29.3260 C.ar      1 SUB1       -0.150
      5 C2         -0.6330    3.3690   28.2990 C.ar      1 SUB1       -0.009
      6 C3         -0.1340    3.1060   27.0530 C.ar      1 SUB1       -0.150
      7 C4          0.6880    2.0210   26.8530 C.ar      1 SUB1       -0.150
      8 C5          1.7770    0.0780   27.6590 C.ar      1 SUB1       -0.150
      9 C6          2.0330   -0.8080   28.6890 C.ar      1 SUB1       -0.150
     10 C7          1.5140   -0.5750   29.9490 C.ar      1 SUB1       -0.150
     11 C8          0.7300    0.5420   30.1920 C.ar      1 SUB1       -0.150
     12 C9          0.4420    1.3940   29.1440 C.ar      1 SUB1        0.000
     13 C10         0.9680    1.1690   27.8960 C.ar      1 SUB1        0.000
     14 N          -2.3780    5.3760   27.1410 N.am      1 SUB1       -0.914
     15 CA         -3.3460    4.4190   26.6620 C.3       1 SUB1        0.417
     16 C          -2.9560    3.7400   25.3550 C.2       1 SUB1        0.569
     17 O          -2.9420    2.5100   25.2230 O.2       1 SUB1       -0.570
     18 C          -2.7770    5.4140   22.1820 C.2       1 SUB1        0.569
     19 CA         -2.1390    4.3510   23.0770 C.3       1 SUB1        0.361
     20 CB         -0.6100    4.3710   22.9240 C.3       1 SUB1        0.144
     21 CG         -0.0370    3.0380   22.4870 C.ar      1 SUB1       -0.144
     22 CD1         0.2570    2.8020   21.1560 C.ar      1 SUB1       -0.150
     23 CD2         0.2780    2.0900   23.4320 C.ar      1 SUB1       -0.150
     24 CE1         0.8280    1.6060   20.7640 C.ar      1 SUB1       -0.150
     25 CE2         0.8440    0.8960   23.0330 C.ar      1 SUB1       -0.150
     26 CZ          1.1470    0.6440   21.7010 C.ar      1 SUB1       -0.022
     27 CF          1.7870   -0.5510   21.3400 C.cat     1 SUB1        0.731
     28 O          -2.5390    6.6130   22.3660 O.2       1 SUB1       -0.570
     29 N          -2.5420    4.6400   24.4460 N.am      1 SUB1       -0.730
     30 NG1         3.0760   -0.5530   20.9510 N.pl3     1 SUB1       -1.192
     31 NG2         1.1040   -1.6960   21.4530 N.pl3     1 SUB1       -1.192
     32 N1         -3.5880    5.0250   21.1850 N.am      1 SUB1       -0.660
     33 C2         -3.7460    3.6350   20.7890 C.3       1 SUB1        0.300
     34 C3         -5.2140    3.2990   20.9080 C.3       1 SUB1        0.000
     35 C4         -5.9610    4.1450   19.8880 C.3       1 SUB1        0.000
     36 C5         -5.6970    5.6050   20.2450 C.3       1 SUB1        0.000
     37 C6         -4.2240    5.9580   20.2660 C.3       1 SUB1        0.300
     38 H          -2.2060    6.2530   26.6930 H         1 SUB1        0.420
     39 HA1        -3.4740    3.6420   27.4310 H         1 SUB1        0.000
     40 HA2        -4.3010    4.9410   26.5080 H         1 SUB1        0.000
     41 H          -0.7660    2.7040   30.3080 H         1 SUB1        0.150
     42 H          -0.3860    3.7540   26.2220 H         1 SUB1        0.150
     43 H           1.1150    1.8380   25.8730 H         1 SUB1        0.150
     44 H           2.2080   -0.0840   26.6770 H         1 SUB1        0.150
     45 H           2.6410   -1.6870   28.5090 H         1 SUB1        0.150
     46 H           1.7230   -1.2700   30.7540 H         1 SUB1        0.150
     47 H           0.3490    0.7430   31.1870 H         1 SUB1        0.150
     48 H          -2.5100    3.3560   22.7890 H         1 SUB1        0.000
     49 H          -0.1650    4.6420   23.8930 H         1 SUB1        0.000
     50 H          -0.3430    5.1300   22.1740 H         1 SUB1        0.000
     51 H           0.0360    3.5610   20.4130 H         1 SUB1        0.150
     52 H           0.0830    2.2790   24.4820 H         1 SUB1        0.150
     53 H           1.0280    1.4240   19.7140 H         1 SUB1        0.150
     54 H           1.0570    0.1370   23.7770 H         1 SUB1        0.150
     55 H          -2.5080    5.5960   24.7370 H         1 SUB1        0.370
     56 H           3.3240   -0.2860   19.9880 H         1 SUB1        0.669
     57 H           3.8140   -0.8220   21.6170 H         1 SUB1        0.669
     58 H           1.4890   -2.4730   22.0100 H         1 SUB1        0.669
     59 H           0.1940   -1.8010   20.9830 H         1 SUB1        0.669
     60 H          -3.1550    2.9850   21.4520 H         1 SUB1        0.000
     61 H          -3.4110    3.4990   19.7500 H         1 SUB1        0.000
     62 H          -5.5700    3.5310   21.9220 H         1 SUB1        0.000
     63 H          -5.3730    2.2310   20.6980 H         1 SUB1        0.000
     64 H          -7.0390    3.9330   19.9370 H         1 SUB1        0.000
     65 H          -5.5910    3.9310   18.8750 H         1 SUB1        0.000
     66 H          -6.1180    5.8030   21.2420 H         1 SUB1        0.000
     67 H          -6.1990    6.2430   19.5030 H         1 SUB1        0.000
     68 H          -3.7940    5.8530   19.2590 H         1 SUB1        0.000
     69 H          -4.0870    6.9910   20.6180 H         1 SUB1        0.000
@<TRIPOS>BOND
     1   15   14 1  
     2   16   15 1  
     3   16   17 2  
     4    1    2 2  
     5    1    3 2  
     6    1    5 1  
     7   14    1 1  
     8    5    6 ar 
     9    6    7 ar 
    10    7   13 ar 
    11    8    9 ar 
    12   13    8 ar 
    13    9   10 ar 
    14   11   10 ar 
    15   12   11 ar 
    16   13   12 ar 
    17   19   18 1  
    18   18   28 2  
    19   18   32 am 
    20   19   20 1  
    21   29   19 1  
    22   20   21 1  
    23   21   22 ar 
    24   22   24 ar 
    25   21   23 ar 
    26   23   25 ar 
    27   24   26 ar 
    28   25   26 ar 
    29   26   27 1  
    30   27   30 ar 
    31   27   31 ar 
    32   29   16 am 
    33   32   33 1  
    34   32   37 1  
    35   33   34 1  
    36   34   35 1  
    37   35   36 1  
    38   36   37 1  
    39   12    4 ar 
    40    5    4 ar 
    41   14   38 1  
    42   15   39 1  
    43   15   40 1  
    44    4   41 1  
    45    6   42 1  
    46    7   43 1  
    47    8   44 1  
    48    9   45 1  
    49   10   46 1  
    50   11   47 1  
    51   19   48 1  
    52   20   49 1  
    53   20   50 1  
    54   22   51 1  
    55   23   52 1  
    56   24   53 1  
    57   25   54 1  
    58   29   55 1  
    59   30   56 1  
    60   30   57 1  
    61   31   58 1  
    62   31   59 1  
    63   33   60 1  
    64   33   61 1  
    65   34   62 1  
    66   34   63 1  
    67   35   64 1  
    68   35   65 1  
    69   36   66 1  
    70   36   67 1  
    71   37   68 1  
    72   37   69 1  
@<TRIPOS>SUBSTRUCTURE
     1 SUB1        1 GROUP

### 
### Created by X-TOOL on Tue Dec  2 13:04:55 2003
### 

@<TRIPOS>MOLECULE
1ppc-ligand.1ppc.087
   69    72     1     0     0
SMALL
MMFF94_CHARGES


@<TRIPOS>ATOM
      1 S          -2.8830    4.7070   25.9660 S.o2      1 SUB1        1.447
      2 O1         -1.5180    4.1260   25.5750 O.2       1 SUB1       -0.650
      3 O2         -3.4680    3.9110   27.1300 O.2       1 SUB1       -0.650
      4 C1         -3.5900    5.2020   23.3100 C.ar      1 SUB1       -0.150
      5 C2         -3.9370    4.6530   24.5160 C.ar      1 SUB1       -0.009
      6 C3         -5.1690    4.0750   24.6550 C.ar      1 SUB1       -0.150
      7 C4         -6.0650    4.0990   23.6120 C.ar      1 SUB1       -0.150
      8 C5         -6.6180    4.6510   21.3750 C.ar      1 SUB1       -0.150
      9 C6         -6.2530    5.1770   20.1490 C.ar      1 SUB1       -0.150
     10 C7         -5.0020    5.7410   19.9810 C.ar      1 SUB1       -0.150
     11 C8         -4.1000    5.7810   21.0330 C.ar      1 SUB1       -0.150
     12 C9         -4.4580    5.2110   22.2380 C.ar      1 SUB1        0.000
     13 C10        -5.7050    4.6620   22.4090 C.ar      1 SUB1        0.000
     14 N          -2.7060    6.2220   26.6210 N.am      1 SUB1       -0.914
     15 CA         -3.9470    6.8070   27.0660 C.3       1 SUB1        0.417
     16 C          -3.9920    7.1140   28.5580 C.2       1 SUB1        0.569
     17 O          -5.0350    7.4300   29.1410 O.2       1 SUB1       -0.570
     18 C          -1.6680    6.0650   30.9700 C.2       1 SUB1        0.569
     19 CA         -2.4300    7.3030   30.4960 C.3       1 SUB1        0.361
     20 CB         -1.5770    8.5650   30.6970 C.3       1 SUB1        0.144
     21 CG         -1.2060    8.8100   32.1460 C.ar      1 SUB1       -0.144
     22 CD1         0.0400    9.3110   32.4780 C.ar      1 SUB1       -0.150
     23 CD2        -2.1470    8.6180   33.1300 C.ar      1 SUB1       -0.150
     24 CE1         0.3600    9.5850   33.7940 C.ar      1 SUB1       -0.150
     25 CE2        -1.8200    8.8890   34.4440 C.ar      1 SUB1       -0.150
     26 CZ         -0.5730    9.3950   34.7940 C.ar      1 SUB1       -0.022
     27 CF         -0.2990    9.7250   36.1290 C.cat     1 SUB1        0.731
     28 O          -0.4450    5.9850   30.8170 O.2       1 SUB1       -0.570
     29 N          -2.7580    7.0980   29.0920 N.am      1 SUB1       -0.730
     30 NG1        -1.1270   10.5250   36.8260 N.pl3     1 SUB1       -1.192
     31 NG2         0.7710    9.1730   36.7120 N.pl3     1 SUB1       -1.192
     32 N1         -2.3470    5.0720   31.5680 N.am      1 SUB1       -0.660
     33 C2         -3.7420    5.1890   31.9600 C.3       1 SUB1        0.300
     34 C3         -4.4970    4.0780   31.2690 C.3       1 SUB1        0.000
     35 C4         -3.9830    2.7600   31.8260 C.3       1 SUB1        0.000
     36 C5         -2.4920    2.6960   31.5080 C.3       1 SUB1        0.000
     37 C6         -1.7100    3.8640   32.0730 C.3       1 SUB1        0.300
     38 H          -1.8230    6.6850   26.6990 H         1 SUB1        0.420
     39 HA1        -4.1040    7.7460   26.5150 H         1 SUB1        0.000
     40 HA2        -4.7620    6.1060   26.8340 H         1 SUB1        0.000
     41 H          -2.6060    5.6420   23.1940 H         1 SUB1        0.150
     42 H          -5.4390    3.5960   25.5880 H         1 SUB1        0.150
     43 H          -7.0560    3.6740   23.7370 H         1 SUB1        0.150
     44 H          -7.6090    4.2350   21.5210 H         1 SUB1        0.150
     45 H          -6.9490    5.1460   19.3180 H         1 SUB1        0.150
     46 H          -4.7250    6.1560   19.0190 H         1 SUB1        0.150
     47 H          -3.1320    6.2520   20.9110 H         1 SUB1        0.150
     48 H          -3.3590    7.4080   31.0760 H         1 SUB1        0.000
     49 H          -2.1440    9.4320   30.3300 H         1 SUB1        0.000
     50 H          -0.6510    8.4580   30.1130 H         1 SUB1        0.000
     51 H           0.7730    9.4900   31.6990 H         1 SUB1        0.150
     52 H          -3.1370    8.2580   32.8770 H         1 SUB1        0.150
     53 H           1.3490    9.9510   34.0430 H         1 SUB1        0.150
     54 H          -2.5520    8.7020   35.2210 H         1 SUB1        0.150
     55 H          -1.9950    6.9300   28.4680 H         1 SUB1        0.370
     56 H          -1.1460   11.5370   36.6360 H         1 SUB1        0.669
     57 H          -1.7410   10.1260   37.5490 H         1 SUB1        0.669
     58 H           0.6850    8.7370   37.6410 H         1 SUB1        0.669
     59 H           1.6820    9.1830   36.2320 H         1 SUB1        0.669
     60 H          -4.1400    6.1660   31.6480 H         1 SUB1        0.000
     61 H          -3.8360    5.0870   33.0520 H         1 SUB1        0.000
     62 H          -4.3200    4.1230   30.1840 H         1 SUB1        0.000
     63 H          -5.5740    4.1750   31.4690 H         1 SUB1        0.000
     64 H          -4.5070    1.9180   31.3510 H         1 SUB1        0.000
     65 H          -4.1390    2.7220   32.9130 H         1 SUB1        0.000
     66 H          -2.3680    2.6880   30.4150 H         1 SUB1        0.000
     67 H          -2.0830    1.7650   31.9290 H         1 SUB1        0.000
     68 H          -1.7440    3.8480   33.1720 H         1 SUB1        0.000
     69 H          -0.6640    3.8180   31.7380 H         1 SUB1        0.000
@<TRIPOS>BOND
     1   15   14 1  
     2   16   15 1  
     3   16   17 2  
     4    1    2 2  
     5    1    3 2  
     6    1    5 1  
     7   14    1 1  
     8    5    6 ar 
     9    6    7 ar 
    10    7   13 ar 
    11    8    9 ar 
    12   13    8 ar 
    13    9   10 ar 
    14   11   10 ar 
    15   12   11 ar 
    16   13   12 ar 
    17   19   18 1  
    18   18   28 2  
    19   18   32 am 
    20   19   20 1  
    21   29   19 1  
    22   20   21 1  
    23   21   22 ar 
    24   22   24 ar 
    25   21   23 ar 
    26   23   25 ar 
    27   24   26 ar 
    28   25   26 ar 
    29   26   27 1  
    30   27   30 ar 
    31   27   31 ar 
    32   29   16 am 
    33   32   33 1  
    34   32   37 1  
    35   33   34 1  
    36   34   35 1  
    37   35   36 1  
    38   36   37 1  
    39   12    4 ar 
    40    5    4 ar 
    41   14   38 1  
    42   15   39 1  
    43   15   40 1  
    44    4   41 1  
    45    6   42 1  
    46    7   43 1  
    47    8   44 1  
    48    9   45 1  
    49   10   46 1  
    50   11   47 1  
    51   19   48 1  
    52   20   49 1  
    53   20   50 1  
    54   22   51 1  
    55   23   52 1  
    56   24   53 1  
    57   25   54 1  
    58   29   55 1  
    59   30   56 1  
    60   30   57 1  
    61   31   58 1  
    62   31   59 1  
    63   33   60 1  
    64   33   61 1  
    65   34   62 1  
    66   34   63 1  
    67   35   64 1  
    68   35   65 1  
    69   36   66 1  
    70   36   67 1  
    71   37   68 1  
    72   37   69 1  
@<TRIPOS>SUBSTRUCTURE
     1 SUB1        1 GROUP

### 
### Created by X-TOOL on Tue Dec  2 13:04:55 2003
### 

@<TRIPOS>MOLECULE
1ppc-ligand.1ppc.088
   69    72     1     0     0
SMALL
MMFF94_CHARGES


@<TRIPOS>ATOM
      1 S          -8.8430   -2.6660   17.6210 S.o2      1 SUB1        1.447
      2 O1         -9.0340   -3.7110   18.7280 O.2       1 SUB1       -0.650
      3 O2         -9.2770   -3.2510   16.2800 O.2       1 SUB1       -0.650
      4 C1         -6.5400   -1.4290   18.6070 C.ar      1 SUB1       -0.150
      5 C2         -7.1160   -2.1830   17.6170 C.ar      1 SUB1       -0.009
      6 C3         -6.3610   -2.5520   16.5390 C.ar      1 SUB1       -0.150
      7 C4         -5.0600   -2.1200   16.4240 C.ar      1 SUB1       -0.150
      8 C5         -3.1860   -0.9570   17.2890 C.ar      1 SUB1       -0.150
      9 C6         -2.5990   -0.2230   18.3030 C.ar      1 SUB1       -0.150
     10 C7         -3.3370    0.1370   19.4160 C.ar      1 SUB1       -0.150
     11 C8         -4.6670   -0.2370   19.5290 C.ar      1 SUB1       -0.150
     12 C9         -5.2290   -1.0100   18.5320 C.ar      1 SUB1        0.000
     13 C10        -4.4990   -1.3560   17.4220 C.ar      1 SUB1        0.000
     14 N          -9.9010   -1.4040   17.8220 N.am      1 SUB1       -0.914
     15 CA         -9.8150   -0.4090   16.7800 C.3       1 SUB1        0.417
     16 C          -9.9600    1.0250   17.2750 C.2       1 SUB1        0.569
     17 O         -10.1150    1.9820   16.5060 O.2       1 SUB1       -0.570
     18 C         -11.3870    2.4980   19.7320 C.2       1 SUB1        0.569
     19 CA         -9.9030    2.2990   19.4210 C.3       1 SUB1        0.361
     20 CB         -9.0950    2.1770   20.7220 C.3       1 SUB1        0.144
     21 CG         -7.8280    3.0080   20.7190 C.ar      1 SUB1       -0.144
     22 CD1        -6.6450    2.4850   20.2260 C.ar      1 SUB1       -0.150
     23 CD2        -7.8750    4.3210   21.1250 C.ar      1 SUB1       -0.150
     24 CE1        -5.5020    3.2600   20.1740 C.ar      1 SUB1       -0.150
     25 CE2        -6.7280    5.0880   21.0750 C.ar      1 SUB1       -0.150
     26 CZ         -5.5330    4.5800   20.5810 C.ar      1 SUB1       -0.022
     27 CF         -4.4060    5.4070   20.4780 C.cat     1 SUB1        0.731
     28 O         -12.1400    1.5250   19.8400 O.2       1 SUB1       -0.570
     29 N          -9.7890    1.0970   18.6060 N.am      1 SUB1       -0.730
     30 NG1        -4.3750    6.4250   19.5970 N.pl3     1 SUB1       -1.192
     31 NG2        -3.3880    5.2010   21.3220 N.pl3     1 SUB1       -1.192
     32 N1        -11.8550    3.7450   19.9020 N.am      1 SUB1       -0.660
     33 C2        -10.9910    4.9110   19.9910 C.3       1 SUB1        0.300
     34 C3        -11.4120    5.8660   18.8990 C.3       1 SUB1        0.000
     35 C4        -12.8260    6.3280   19.2140 C.3       1 SUB1        0.000
     36 C5        -13.7070    5.0820   19.2290 C.3       1 SUB1        0.000
     37 C6        -13.2450    4.0360   20.2220 C.3       1 SUB1        0.300
     38 H         -10.5360   -1.3380   18.5910 H         1 SUB1        0.420
     39 HA1        -8.8360   -0.5070   16.2880 H         1 SUB1        0.000
     40 HA2       -10.6140   -0.6040   16.0490 H         1 SUB1        0.000
     41 H          -7.1330   -1.1540   19.4720 H         1 SUB1        0.150
     42 H          -6.7890   -3.1870   15.7720 H         1 SUB1        0.150
     43 H          -4.4760   -2.3820   15.5480 H         1 SUB1        0.150
     44 H          -2.6200   -1.2150   16.4000 H         1 SUB1        0.150
     45 H          -1.5580    0.0710   18.2270 H         1 SUB1        0.150
     46 H          -2.8720    0.7170   20.2050 H         1 SUB1        0.150
     47 H          -5.2550    0.0710   20.3860 H         1 SUB1        0.150
     48 H          -9.5270    3.1630   18.8510 H         1 SUB1        0.000
     49 H          -8.8210    1.1220   20.8650 H         1 SUB1        0.000
     50 H          -9.7270    2.5080   21.5590 H         1 SUB1        0.000
     51 H          -6.6150    1.4590   19.8790 H         1 SUB1        0.150
     52 H          -8.8040    4.7500   21.4810 H         1 SUB1        0.150
     53 H          -4.5770    2.8300   19.8110 H         1 SUB1        0.150
     54 H          -6.7610    6.1120   21.4290 H         1 SUB1        0.150
     55 H          -9.5620    0.2470   19.0820 H         1 SUB1        0.370
     56 H          -3.5220    6.6070   19.0500 H         1 SUB1        0.669
     57 H          -5.2050    7.0220   19.4710 H         1 SUB1        0.669
     58 H          -2.4220    5.3910   21.0200 H         1 SUB1        0.669
     59 H          -3.5710    4.8520   22.2730 H         1 SUB1        0.669
     60 H          -9.9410    4.6140   19.8490 H         1 SUB1        0.000
     61 H         -11.1060    5.3900   20.9750 H         1 SUB1        0.000
     62 H         -11.3920    5.3530   17.9260 H         1 SUB1        0.000
     63 H         -10.7310    6.7290   18.8720 H         1 SUB1        0.000
     64 H         -13.1760    7.0300   18.4430 H         1 SUB1        0.000
     65 H         -12.8520    6.8210   20.1970 H         1 SUB1        0.000
     66 H         -13.6990    4.6370   18.2230 H         1 SUB1        0.000
     67 H         -14.7330    5.3820   19.4890 H         1 SUB1        0.000
     68 H         -13.3250    4.4250   21.2480 H         1 SUB1        0.000
     69 H         -13.8560    3.1270   20.1270 H         1 SUB1        0.000
@<TRIPOS>BOND
     1   15   14 1  
     2   16   15 1  
     3   16   17 2  
     4    1    2 2  
     5    1    3 2  
     6    1    5 1  
     7   14    1 1  
     8    5    6 ar 
     9    6    7 ar 
    10    7   13 ar 
    11    8    9 ar 
    12   13    8 ar 
    13    9   10 ar 
    14   11   10 ar 
    15   12   11 ar 
    16   13   12 ar 
    17   19   18 1  
    18   18   28 2  
    19   18   32 am 
    20   19   20 1  
    21   29   19 1  
    22   20   21 1  
    23   21   22 ar 
    24   22   24 ar 
    25   21   23 ar 
    26   23   25 ar 
    27   24   26 ar 
    28   25   26 ar 
    29   26   27 1  
    30   27   30 ar 
    31   27   31 ar 
    32   29   16 am 
    33   32   33 1  
    34   32   37 1  
    35   33   34 1  
    36   34   35 1  
    37   35   36 1  
    38   36   37 1  
    39   12    4 ar 
    40    5    4 ar 
    41   14   38 1  
    42   15   39 1  
    43   15   40 1  
    44    4   41 1  
    45    6   42 1  
    46    7   43 1  
    47    8   44 1  
    48    9   45 1  
    49   10   46 1  
    50   11   47 1  
    51   19   48 1  
    52   20   49 1  
    53   20   50 1  
    54   22   51 1  
    55   23   52 1  
    56   24   53 1  
    57   25   54 1  
    58   29   55 1  
    59   30   56 1  
    60   30   57 1  
    61   31   58 1  
    62   31   59 1  
    63   33   60 1  
    64   33   61 1  
    65   34   62 1  
    66   34   63 1  
    67   35   64 1  
    68   35   65 1  
    69   36   66 1  
    70   36   67 1  
    71   37   68 1  
    72   37   69 1  
@<TRIPOS>SUBSTRUCTURE
     1 SUB1        1 GROUP

### 
### Created by X-TOOL on Tue Dec  2 13:04:55 2003
### 

@<TRIPOS>MOLECULE
1ppc-ligand.1ppc.089
   69    72     1     0     0
SMALL
MMFF94_CHARGES


@<TRIPOS>ATOM
      1 S          -4.8160    6.6670   27.9060 S.o2      1 SUB1        1.447
      2 O1         -6.0570    7.4410   28.3720 O.2       1 SUB1       -0.650
      3 O2         -5.1820    5.2070   27.6570 O.2       1 SUB1       -0.650
      4 C1         -3.1350    8.0490   29.6580 C.ar      1 SUB1       -0.150
      5 C2         -3.5570    6.8390   29.1720 C.ar      1 SUB1       -0.009
      6 C3         -2.9630    5.6950   29.6280 C.ar      1 SUB1       -0.150
      7 C4         -1.9160    5.7670   30.5180 C.ar      1 SUB1       -0.150
      8 C5         -0.4600    7.0280   31.8980 C.ar      1 SUB1       -0.150
      9 C6         -0.0580    8.2480   32.4100 C.ar      1 SUB1       -0.150
     10 C7         -0.6650    9.4140   31.9820 C.ar      1 SUB1       -0.150
     11 C8         -1.6840    9.3740   31.0440 C.ar      1 SUB1       -0.150
     12 C9         -2.1090    8.1470   30.5740 C.ar      1 SUB1        0.000
     13 C10        -1.4980    6.9900   30.9890 C.ar      1 SUB1        0.000
     14 N          -4.3410    7.1800   26.4010 N.am      1 SUB1       -0.914
     15 CA         -3.2100    6.4530   25.8750 C.3       1 SUB1        0.417
     16 C          -3.5140    5.0040   25.5170 C.2       1 SUB1        0.569
     17 O          -2.7410    4.0760   25.7840 O.2       1 SUB1       -0.570
     18 C          -6.7680    3.9270   24.2350 C.2       1 SUB1        0.569
     19 CA         -5.2620    3.6770   24.3270 C.3       1 SUB1        0.361
     20 CB         -4.7050    3.2590   22.9560 C.3       1 SUB1        0.144
     21 CG         -4.4220    4.4350   22.0440 C.ar      1 SUB1       -0.144
     22 CD1        -5.4280    4.9830   21.2690 C.ar      1 SUB1       -0.150
     23 CD2        -3.1760    5.0180   22.0520 C.ar      1 SUB1       -0.150
     24 CE1        -5.1830    6.0880   20.4770 C.ar      1 SUB1       -0.150
     25 CE2        -2.9360    6.1180   21.2550 C.ar      1 SUB1       -0.150
     26 CZ         -3.9370    6.6830   20.4730 C.ar      1 SUB1       -0.022
     27 CF         -3.6770    7.8430   19.7290 C.cat     1 SUB1        0.731
     28 O          -7.2230    4.7150   23.3990 O.2       1 SUB1       -0.570
     29 N          -4.6470    4.9100   24.7990 N.am      1 SUB1       -0.730
     30 NG1        -2.4150    8.2130   19.4460 N.pl3     1 SUB1       -1.192
     31 NG2        -4.7180    8.5370   19.2530 N.pl3     1 SUB1       -1.192
     32 N1         -7.5890    3.2660   25.0670 N.am      1 SUB1       -0.660
     33 C2         -7.1420    2.1820   25.9270 C.3       1 SUB1        0.300
     34 C3         -7.4790    2.5700   27.3480 C.3       1 SUB1        0.000
     35 C4         -8.9940    2.6350   27.4580 C.3       1 SUB1        0.000
     36 C5         -9.4650    3.6980   26.4690 C.3       1 SUB1        0.000
     37 C6         -9.0370    3.4180   25.0430 C.3       1 SUB1        0.300
     38 H          -4.7940    7.9210   25.9070 H         1 SUB1        0.420
     39 HA1        -2.8600    6.9680   24.9680 H         1 SUB1        0.000
     40 HA2        -2.4120    6.4610   26.6320 H         1 SUB1        0.000
     41 H          -3.6200    8.9540   29.3120 H         1 SUB1        0.150
     42 H          -3.3170    4.7300   29.2880 H         1 SUB1        0.150
     43 H          -1.4200    4.8600   30.8470 H         1 SUB1        0.150
     44 H           0.0340    6.1130   32.2060 H         1 SUB1        0.150
     45 H           0.7350    8.2900   33.1480 H         1 SUB1        0.150
     46 H          -0.3410   10.3670   32.3840 H         1 SUB1        0.150
     47 H          -2.1390   10.2900   30.6840 H         1 SUB1        0.150
     48 H          -5.0660    2.8710   25.0490 H         1 SUB1        0.000
     49 H          -5.4400    2.6050   22.4650 H         1 SUB1        0.000
     50 H          -3.7680    2.7050   23.1140 H         1 SUB1        0.000
     51 H          -6.4190    4.5420   21.2840 H         1 SUB1        0.150
     52 H          -2.3890    4.6160   22.6810 H         1 SUB1        0.150
     53 H          -5.9740    6.4900   19.8550 H         1 SUB1        0.150
     54 H          -1.9430    6.5530   21.2370 H         1 SUB1        0.150
     55 H          -5.1110    5.7650   24.5680 H         1 SUB1        0.370
     56 H          -1.6330    7.5720   19.6440 H         1 SUB1        0.669
     57 H          -2.2300    9.1380   19.0320 H         1 SUB1        0.669
     58 H          -5.6590    8.3890   19.6440 H         1 SUB1        0.669
     59 H          -4.5770    9.2200   18.4950 H         1 SUB1        0.669
     60 H          -6.0560    2.0410   25.8220 H         1 SUB1        0.000
     61 H          -7.6610    1.2500   25.6580 H         1 SUB1        0.000
     62 H          -7.0420    3.5520   27.5820 H         1 SUB1        0.000
     63 H          -7.0840    1.8170   28.0460 H         1 SUB1        0.000
     64 H          -9.2880    2.9140   28.4800 H         1 SUB1        0.000
     65 H          -9.4350    1.6610   27.2030 H         1 SUB1        0.000
     66 H          -9.0480    4.6690   26.7750 H         1 SUB1        0.000
     67 H         -10.5640    3.7450   26.5010 H         1 SUB1        0.000
     68 H          -9.5100    2.4940   24.6790 H         1 SUB1        0.000
     69 H          -9.3200    4.2570   24.3900 H         1 SUB1        0.000
@<TRIPOS>BOND
     1   15   14 1  
     2   16   15 1  
     3   16   17 2  
     4    1    2 2  
     5    1    3 2  
     6    1    5 1  
     7   14    1 1  
     8    5    6 ar 
     9    6    7 ar 
    10    7   13 ar 
    11    8    9 ar 
    12   13    8 ar 
    13    9   10 ar 
    14   11   10 ar 
    15   12   11 ar 
    16   13   12 ar 
    17   19   18 1  
    18   18   28 2  
    19   18   32 am 
    20   19   20 1  
    21   29   19 1  
    22   20   21 1  
    23   21   22 ar 
    24   22   24 ar 
    25   21   23 ar 
    26   23   25 ar 
    27   24   26 ar 
    28   25   26 ar 
    29   26   27 1  
    30   27   30 ar 
    31   27   31 ar 
    32   29   16 am 
    33   32   33 1  
    34   32   37 1  
    35   33   34 1  
    36   34   35 1  
    37   35   36 1  
    38   36   37 1  
    39   12    4 ar 
    40    5    4 ar 
    41   14   38 1  
    42   15   39 1  
    43   15   40 1  
    44    4   41 1  
    45    6   42 1  
    46    7   43 1  
    47    8   44 1  
    48    9   45 1  
    49   10   46 1  
    50   11   47 1  
    51   19   48 1  
    52   20   49 1  
    53   20   50 1  
    54   22   51 1  
    55   23   52 1  
    56   24   53 1  
    57   25   54 1  
    58   29   55 1  
    59   30   56 1  
    60   30   57 1  
    61   31   58 1  
    62   31   59 1  
    63   33   60 1  
    64   33   61 1  
    65   34   62 1  
    66   34   63 1  
    67   35   64 1  
    68   35   65 1  
    69   36   66 1  
    70   36   67 1  
    71   37   68 1  
    72   37   69 1  
@<TRIPOS>SUBSTRUCTURE
     1 SUB1        1 GROUP

### 
### Created by X-TOOL on Tue Dec  2 13:04:55 2003
### 

@<TRIPOS>MOLECULE
1ppc-ligand.1ppc.090
   69    72     1     0     0
SMALL
MMFF94_CHARGES


@<TRIPOS>ATOM
      1 S           0.4930    1.5250   18.1230 S.o2      1 SUB1        1.447
      2 O1          1.0370    2.5530   17.1220 O.2       1 SUB1       -0.650
      3 O2          1.4740    1.3620   19.2800 O.2       1 SUB1       -0.650
      4 C1         -0.9230   -0.3160   16.5690 C.ar      1 SUB1       -0.150
      5 C2          0.2340   -0.0150   17.2390 C.ar      1 SUB1       -0.009
      6 C3          1.2340   -0.9460   17.2900 C.ar      1 SUB1       -0.150
      7 C4          1.0530   -2.1870   16.7260 C.ar      1 SUB1       -0.150
      8 C5         -0.2610   -3.7230   15.4890 C.ar      1 SUB1       -0.150
      9 C6         -1.4160   -4.0120   14.7870 C.ar      1 SUB1       -0.150
     10 C7         -2.4280   -3.0740   14.7000 C.ar      1 SUB1       -0.150
     11 C8         -2.2950   -1.8350   15.3080 C.ar      1 SUB1       -0.150
     12 C9         -1.1170   -1.5410   15.9670 C.ar      1 SUB1        0.000
     13 C10        -0.1180   -2.4770   16.0640 C.ar      1 SUB1        0.000
     14 N          -0.8630    2.1090   18.8800 N.am      1 SUB1       -0.914
     15 CA         -1.3960    1.2140   19.8790 C.3       1 SUB1        0.417
     16 C          -2.8610    0.8500   19.6710 C.2       1 SUB1        0.569
     17 O          -3.2300    0.0420   18.8100 O.2       1 SUB1       -0.570
     18 C          -5.4150    0.3470   21.5280 C.2       1 SUB1        0.569
     19 CA         -5.1100    1.4830   20.5510 C.3       1 SUB1        0.361
     20 CB         -5.7440    2.7940   21.0410 C.3       1 SUB1        0.144
     21 CG         -4.8120    3.9840   20.9350 C.ar      1 SUB1       -0.144
     22 CD1        -4.1450    4.4570   22.0520 C.ar      1 SUB1       -0.150
     23 CD2        -4.5580    4.5420   19.7040 C.ar      1 SUB1       -0.150
     24 CE1        -3.2540    5.5080   21.9460 C.ar      1 SUB1       -0.150
     25 CE2        -3.6710    5.5950   19.6060 C.ar      1 SUB1       -0.150
     26 CZ         -2.9910    6.0800   20.7170 C.ar      1 SUB1       -0.022
     27 CF         -2.0440    7.1040   20.5690 C.cat     1 SUB1        0.731
     28 O          -4.6140    0.0580   22.4230 O.2       1 SUB1       -0.570
     29 N          -3.6610    1.5940   20.4560 N.am      1 SUB1       -0.730
     30 NG1        -0.7300    6.8220   20.4910 N.pl3     1 SUB1       -1.192
     31 NG2        -2.4840    8.3610   20.4430 N.pl3     1 SUB1       -1.192
     32 N1         -6.5730   -0.3230   21.4060 N.am      1 SUB1       -0.660
     33 C2         -7.6410    0.0960   20.5130 C.3       1 SUB1        0.300
     34 C3         -7.9160   -1.0540   19.5730 C.3       1 SUB1        0.000
     35 C4         -8.4540   -2.2080   20.4060 C.3       1 SUB1        0.000
     36 C5         -7.3680   -2.5670   21.4170 C.3       1 SUB1        0.000
     37 C6         -6.9650   -1.4040   22.2990 C.3       1 SUB1        0.300
     38 H          -1.2720    2.9960   18.6650 H         1 SUB1        0.420
     39 HA1        -0.8040    0.2870   19.8640 H         1 SUB1        0.000
     40 HA2        -1.2970    1.6960   20.8630 H         1 SUB1        0.000
     41 H          -1.7080    0.4300   16.5110 H         1 SUB1        0.150
     42 H           2.1720   -0.7050   17.7760 H         1 SUB1        0.150
     43 H           1.8330   -2.9370   16.8020 H         1 SUB1        0.150
     44 H           0.5230   -4.4660   15.5870 H         1 SUB1        0.150
     45 H          -1.5290   -4.9760   14.3030 H         1 SUB1        0.150
     46 H          -3.3340   -3.3090   14.1520 H         1 SUB1        0.150
     47 H          -3.1010   -1.1110   15.2680 H         1 SUB1        0.150
     48 H          -5.5230    1.2390   19.5610 H         1 SUB1        0.000
     49 H          -6.0340    2.6700   22.0950 H         1 SUB1        0.000
     50 H          -6.6400    2.9970   20.4370 H         1 SUB1        0.000
     51 H          -4.3230    3.9980   23.0180 H         1 SUB1        0.150
     52 H          -5.0500    4.1570   18.8180 H         1 SUB1        0.150
     53 H          -2.7590    5.8850   22.8330 H         1 SUB1        0.150
     54 H          -3.5010    6.0550   18.6400 H         1 SUB1        0.150
     55 H          -3.2210    2.2870   21.0260 H         1 SUB1        0.370
     56 H          -0.0590    7.3280   21.0860 H         1 SUB1        0.669
     57 H          -0.3960    6.1020   19.8360 H         1 SUB1        0.669
     58 H          -1.8330    9.1100   20.1670 H         1 SUB1        0.669
     59 H          -3.4740    8.5810   20.6230 H         1 SUB1        0.669
     60 H          -7.3290    0.9830   19.9420 H         1 SUB1        0.000
     61 H          -8.5460    0.3340   21.0930 H         1 SUB1        0.000
     62 H          -6.9870   -1.3560   19.0680 H         1 SUB1        0.000
     63 H          -8.6620   -0.7550   18.8220 H         1 SUB1        0.000
     64 H          -8.6710   -3.0710   19.7610 H         1 SUB1        0.000
     65 H          -9.3710   -1.9010   20.9300 H         1 SUB1        0.000
     66 H          -6.4800   -2.9140   20.8680 H         1 SUB1        0.000
     67 H          -7.7420   -3.3790   22.0580 H         1 SUB1        0.000
     68 H          -7.8130   -1.0910   22.9260 H         1 SUB1        0.000
     69 H          -6.1200   -1.6900   22.9420 H         1 SUB1        0.000
@<TRIPOS>BOND
     1   15   14 1  
     2   16   15 1  
     3   16   17 2  
     4    1    2 2  
     5    1    3 2  
     6    1    5 1  
     7   14    1 1  
     8    5    6 ar 
     9    6    7 ar 
    10    7   13 ar 
    11    8    9 ar 
    12   13    8 ar 
    13    9   10 ar 
    14   11   10 ar 
    15   12   11 ar 
    16   13   12 ar 
    17   19   18 1  
    18   18   28 2  
    19   18   32 am 
    20   19   20 1  
    21   29   19 1  
    22   20   21 1  
    23   21   22 ar 
    24   22   24 ar 
    25   21   23 ar 
    26   23   25 ar 
    27   24   26 ar 
    28   25   26 ar 
    29   26   27 1  
    30   27   30 ar 
    31   27   31 ar 
    32   29   16 am 
    33   32   33 1  
    34   32   37 1  
    35   33   34 1  
    36   34   35 1  
    37   35   36 1  
    38   36   37 1  
    39   12    4 ar 
    40    5    4 ar 
    41   14   38 1  
    42   15   39 1  
    43   15   40 1  
    44    4   41 1  
    45    6   42 1  
    46    7   43 1  
    47    8   44 1  
    48    9   45 1  
    49   10   46 1  
    50   11   47 1  
    51   19   48 1  
    52   20   49 1  
    53   20   50 1  
    54   22   51 1  
    55   23   52 1  
    56   24   53 1  
    57   25   54 1  
    58   29   55 1  
    59   30   56 1  
    60   30   57 1  
    61   31   58 1  
    62   31   59 1  
    63   33   60 1  
    64   33   61 1  
    65   34   62 1  
    66   34   63 1  
    67   35   64 1  
    68   35   65 1  
    69   36   66 1  
    70   36   67 1  
    71   37   68 1  
    72   37   69 1  
@<TRIPOS>SUBSTRUCTURE
     1 SUB1        1 GROUP

### 
### Created by X-TOOL on Tue Dec  2 13:04:55 2003
### 

@<TRIPOS>MOLECULE
1ppc-ligand.1ppc.091
   69    72     1     0     0
SMALL
MMFF94_CHARGES


@<TRIPOS>ATOM
      1 S          -1.6850    3.5280   20.9930 S.o2      1 SUB1        1.447
      2 O1         -0.3860    3.3750   21.7960 O.2       1 SUB1       -0.650
      3 O2         -1.7140    2.5070   19.8600 O.2       1 SUB1       -0.650
      4 C1         -2.7780    6.0790   20.6740 C.ar      1 SUB1       -0.150
      5 C2         -1.7560    5.2130   20.3830 C.ar      1 SUB1       -0.009
      6 C3         -0.7560    5.6210   19.5440 C.ar      1 SUB1       -0.150
      7 C4         -0.8110    6.8640   18.9560 C.ar      1 SUB1       -0.150
      8 C5         -1.8630    8.9660   18.6640 C.ar      1 SUB1       -0.150
      9 C6         -2.8780    9.8490   18.9840 C.ar      1 SUB1       -0.150
     10 C7         -3.8840    9.4650   19.8520 C.ar      1 SUB1       -0.150
     11 C8         -3.8830    8.1980   20.4140 C.ar      1 SUB1       -0.150
     12 C9         -2.8390    7.3420   20.1230 C.ar      1 SUB1        0.000
     13 C10        -1.8480    7.7190   19.2520 C.ar      1 SUB1        0.000
     14 N          -2.9940    3.0820   21.9110 N.am      1 SUB1       -0.914
     15 CA         -4.2470    3.1470   21.1980 C.3       1 SUB1        0.417
     16 C          -5.4400    2.6220   21.9880 C.2       1 SUB1        0.569
     17 O          -5.3760    2.3640   23.1960 O.2       1 SUB1       -0.570
     18 C          -8.8390    2.6890   20.7680 C.2       1 SUB1        0.569
     19 CA         -7.8060    1.9290   21.6000 C.3       1 SUB1        0.361
     20 CB         -7.9650    0.4140   21.3950 C.3       1 SUB1        0.144
     21 CG         -8.7030    0.0590   20.1200 C.ar      1 SUB1       -0.144
     22 CD1        -8.0050   -0.2870   18.9760 C.ar      1 SUB1       -0.150
     23 CD2       -10.0760   -0.0080   20.1250 C.ar      1 SUB1       -0.150
     24 CE1        -8.6780   -0.6620   17.8290 C.ar      1 SUB1       -0.150
     25 CE2       -10.7430   -0.3790   18.9740 C.ar      1 SUB1       -0.150
     26 CZ        -10.0570   -0.7310   17.8180 C.ar      1 SUB1       -0.022
     27 CF        -10.7620   -1.1710   16.6890 C.cat     1 SUB1        0.731
     28 O          -8.6110    2.9670   19.5860 O.2       1 SUB1       -0.570
     29 N          -6.4900    2.3890   21.1810 N.am      1 SUB1       -0.730
     30 NG1       -10.9120   -2.4850   16.4370 N.pl3     1 SUB1       -1.192
     31 NG2       -11.3390   -0.2530   15.9040 N.pl3     1 SUB1       -1.192
     32 N1        -10.0040    3.0380   21.3380 N.am      1 SUB1       -0.660
     33 C2        -10.4180    2.5670   22.6500 C.3       1 SUB1        0.300
     34 C3        -10.6670    3.7870   23.5050 C.3       1 SUB1        0.000
     35 C4        -11.8460    4.5350   22.9040 C.3       1 SUB1        0.000
     36 C5        -11.4450    4.9280   21.4850 C.3       1 SUB1        0.000
     37 C6        -11.0600    3.7430   20.6240 C.3       1 SUB1        0.300
     38 H          -2.9210    2.7970   22.8670 H         1 SUB1        0.420
     39 HA1        -4.4410    4.1970   20.9350 H         1 SUB1        0.000
     40 HA2        -4.1520    2.5500   20.2790 H         1 SUB1        0.000
     41 H          -3.5590    5.7630   21.3550 H         1 SUB1        0.150
     42 H           0.0810    4.9640   19.3420 H         1 SUB1        0.150
     43 H          -0.0370    7.1700   18.2600 H         1 SUB1        0.150
     44 H          -1.0900    9.2510   17.9590 H         1 SUB1        0.150
     45 H          -2.8860   10.8450   18.5540 H         1 SUB1        0.150
     46 H          -4.6790   10.1600   20.0940 H         1 SUB1        0.150
     47 H          -4.6880    7.8850   21.0690 H         1 SUB1        0.150
     48 H          -7.9510    2.1580   22.6670 H         1 SUB1        0.000
     49 H          -8.5220    0.0020   22.2480 H         1 SUB1        0.000
     50 H          -6.9640   -0.0410   21.3570 H         1 SUB1        0.000
     51 H          -6.9210   -0.2620   18.9800 H         1 SUB1        0.150
     52 H         -10.6310    0.2280   21.0260 H         1 SUB1        0.150
     53 H          -8.1190   -0.9030   16.9320 H         1 SUB1        0.150
     54 H         -11.8260   -0.3950   18.9720 H         1 SUB1        0.150
     55 H          -6.3540    2.5470   20.2030 H         1 SUB1        0.370
     56 H         -11.1710   -3.1290   17.1980 H         1 SUB1        0.669
     57 H         -10.7680   -2.8460   15.4840 H         1 SUB1        0.669
     58 H         -11.6660    0.6370   16.3060 H         1 SUB1        0.669
     59 H         -11.4550   -0.4370   14.8970 H         1 SUB1        0.669
     60 H          -9.6240    1.9490   23.0960 H         1 SUB1        0.000
     61 H         -11.3400    1.9730   22.5630 H         1 SUB1        0.000
     62 H          -9.7750    4.4310   23.5080 H         1 SUB1        0.000
     63 H         -10.9020    3.4810   24.5350 H         1 SUB1        0.000
     64 H         -12.0660    5.4350   23.4980 H         1 SUB1        0.000
     65 H         -12.7330    3.8860   22.8800 H         1 SUB1        0.000
     66 H         -10.5860    5.6130   21.5420 H         1 SUB1        0.000
     67 H         -12.2940    5.4430   21.0110 H         1 SUB1        0.000
     68 H         -11.9270    3.0820   20.4780 H         1 SUB1        0.000
     69 H         -10.6920    4.0880   19.6470 H         1 SUB1        0.000
@<TRIPOS>BOND
     1   15   14 1  
     2   16   15 1  
     3   16   17 2  
     4    1    2 2  
     5    1    3 2  
     6    1    5 1  
     7   14    1 1  
     8    5    6 ar 
     9    6    7 ar 
    10    7   13 ar 
    11    8    9 ar 
    12   13    8 ar 
    13    9   10 ar 
    14   11   10 ar 
    15   12   11 ar 
    16   13   12 ar 
    17   19   18 1  
    18   18   28 2  
    19   18   32 am 
    20   19   20 1  
    21   29   19 1  
    22   20   21 1  
    23   21   22 ar 
    24   22   24 ar 
    25   21   23 ar 
    26   23   25 ar 
    27   24   26 ar 
    28   25   26 ar 
    29   26   27 1  
    30   27   30 ar 
    31   27   31 ar 
    32   29   16 am 
    33   32   33 1  
    34   32   37 1  
    35   33   34 1  
    36   34   35 1  
    37   35   36 1  
    38   36   37 1  
    39   12    4 ar 
    40    5    4 ar 
    41   14   38 1  
    42   15   39 1  
    43   15   40 1  
    44    4   41 1  
    45    6   42 1  
    46    7   43 1  
    47    8   44 1  
    48    9   45 1  
    49   10   46 1  
    50   11   47 1  
    51   19   48 1  
    52   20   49 1  
    53   20   50 1  
    54   22   51 1  
    55   23   52 1  
    56   24   53 1  
    57   25   54 1  
    58   29   55 1  
    59   30   56 1  
    60   30   57 1  
    61   31   58 1  
    62   31   59 1  
    63   33   60 1  
    64   33   61 1  
    65   34   62 1  
    66   34   63 1  
    67   35   64 1  
    68   35   65 1  
    69   36   66 1  
    70   36   67 1  
    71   37   68 1  
    72   37   69 1  
@<TRIPOS>SUBSTRUCTURE
     1 SUB1        1 GROUP

### 
### Created by X-TOOL on Tue Dec  2 13:04:55 2003
### 

@<TRIPOS>MOLECULE
1ppc-ligand.1ppc.092
   69    72     1     0     0
SMALL
MMFF94_CHARGES


@<TRIPOS>ATOM
      1 S          -2.9000    6.8630   30.2660 S.o2      1 SUB1        1.447
      2 O1         -4.0890    7.7620   29.9020 O.2       1 SUB1       -0.650
      3 O2         -3.3960    5.6350   31.0250 O.2       1 SUB1       -0.650
      4 C1         -1.6280    7.7190   32.6020 C.ar      1 SUB1       -0.150
      5 C2         -1.7540    7.8380   31.2420 C.ar      1 SUB1       -0.009
      6 C3         -1.0120    8.7810   30.5860 C.ar      1 SUB1       -0.150
      7 C4         -0.1960    9.6340   31.2920 C.ar      1 SUB1       -0.150
      8 C5          0.7560   10.3630   33.3360 C.ar      1 SUB1       -0.150
      9 C6          0.9050   10.2180   34.7030 C.ar      1 SUB1       -0.150
     10 C7          0.1850    9.2530   35.3810 C.ar      1 SUB1       -0.150
     11 C8         -0.6870    8.4170   34.7010 C.ar      1 SUB1       -0.150
     12 C9         -0.7930    8.5400   33.3300 C.ar      1 SUB1        0.000
     13 C10        -0.0870    9.5070   32.6580 C.ar      1 SUB1        0.000
     14 N          -2.2330    6.1970   28.9010 N.am      1 SUB1       -0.914
     15 CA         -1.1430    5.2920   29.1740 C.3       1 SUB1        0.417
     16 C          -1.5080    3.8180   29.0360 C.2       1 SUB1        0.569
     17 O          -1.9090    3.3290   27.9730 O.2       1 SUB1       -0.570
     18 C          -0.4240    1.2080   31.1360 C.2       1 SUB1        0.569
     19 CA         -1.6710    1.7700   30.4530 C.3       1 SUB1        0.361
     20 CB         -2.9110    1.5410   31.3320 C.3       1 SUB1        0.144
     21 CG         -4.2140    1.6440   30.5640 C.ar      1 SUB1       -0.144
     22 CD1        -4.7980    0.5150   30.0160 C.ar      1 SUB1       -0.150
     23 CD2        -4.8650    2.8520   30.4890 C.ar      1 SUB1       -0.150
     24 CE1        -6.0120    0.6000   29.3620 C.ar      1 SUB1       -0.150
     25 CE2        -6.0760    2.9310   29.8290 C.ar      1 SUB1       -0.150
     26 CZ         -6.6770    1.8070   29.2760 C.ar      1 SUB1       -0.022
     27 CF         -7.9400    1.9090   28.6760 C.cat     1 SUB1        0.731
     28 O           0.0180    1.7320   32.1640 O.2       1 SUB1       -0.570
     29 N          -1.4350    3.1880   30.2210 N.am      1 SUB1       -0.730
     30 NG1        -8.0610    2.2260   27.3730 N.pl3     1 SUB1       -1.192
     31 NG2        -9.0190    1.6210   29.4130 N.pl3     1 SUB1       -1.192
     32 N1          0.1750    0.1270   30.6090 N.am      1 SUB1       -0.660
     33 C2         -0.4050   -0.6540   29.5290 C.3       1 SUB1        0.300
     34 C3          0.5920   -0.6610   28.3950 C.3       1 SUB1        0.000
     35 C4          1.8270   -1.4070   28.8760 C.3       1 SUB1        0.000
     36 C5          2.3660   -0.6410   30.0800 C.3       1 SUB1        0.000
     37 C6          1.3530   -0.4950   31.1970 C.3       1 SUB1        0.300
     38 H          -2.5560    6.4030   27.9770 H         1 SUB1        0.420
     39 HA1        -0.3260    5.5130   28.4720 H         1 SUB1        0.000
     40 HA2        -0.7980    5.4660   30.2040 H         1 SUB1        0.000
     41 H          -2.2000    6.9570   33.1190 H         1 SUB1        0.150
     42 H          -1.0670    8.8560   29.5070 H         1 SUB1        0.150
     43 H           0.3600   10.4070   30.7730 H         1 SUB1        0.150
     44 H           1.2950   11.1390   32.8040 H         1 SUB1        0.150
     45 H           1.5880   10.8640   35.2440 H         1 SUB1        0.150
     46 H           0.3030    9.1480   36.4540 H         1 SUB1        0.150
     47 H          -1.2760    7.6810   35.2360 H         1 SUB1        0.150
     48 H          -1.8230    1.2630   29.4880 H         1 SUB1        0.000
     49 H          -2.9160    2.2960   32.1310 H         1 SUB1        0.000
     50 H          -2.8450    0.5370   31.7760 H         1 SUB1        0.000
     51 H          -4.2980   -0.4430   30.1010 H         1 SUB1        0.150
     52 H          -4.4330    3.7360   30.9440 H         1 SUB1        0.150
     53 H          -6.4440   -0.2870   28.9140 H         1 SUB1        0.150
     54 H          -6.5690    3.8920   29.7410 H         1 SUB1        0.150
     55 H          -1.1970    3.7440   31.0170 H         1 SUB1        0.370
     56 H          -7.3590    1.8960   26.6950 H         1 SUB1        0.669
     57 H          -8.8560    2.7970   27.0540 H         1 SUB1        0.669
     58 H          -9.7450    2.3360   29.5650 H         1 SUB1        0.669
     59 H          -9.1230    0.6850   29.8300 H         1 SUB1        0.669
     60 H          -1.3500   -0.1970   29.1990 H         1 SUB1        0.000
     61 H          -0.5970   -1.6830   29.8700 H         1 SUB1        0.000
     62 H           0.8580    0.3710   28.1230 H         1 SUB1        0.000
     63 H           0.1620   -1.1710   27.5210 H         1 SUB1        0.000
     64 H           2.5840   -1.4390   28.0790 H         1 SUB1        0.000
     65 H           1.5600   -2.4320   29.1690 H         1 SUB1        0.000
     66 H           2.6690    0.3630   29.7490 H         1 SUB1        0.000
     67 H           3.2430   -1.1780   30.4730 H         1 SUB1        0.000
     68 H           1.0960   -1.4830   31.6080 H         1 SUB1        0.000
     69 H           1.7590    0.1400   31.9970 H         1 SUB1        0.000
@<TRIPOS>BOND
     1   15   14 1  
     2   16   15 1  
     3   16   17 2  
     4    1    2 2  
     5    1    3 2  
     6    1    5 1  
     7   14    1 1  
     8    5    6 ar 
     9    6    7 ar 
    10    7   13 ar 
    11    8    9 ar 
    12   13    8 ar 
    13    9   10 ar 
    14   11   10 ar 
    15   12   11 ar 
    16   13   12 ar 
    17   19   18 1  
    18   18   28 2  
    19   18   32 am 
    20   19   20 1  
    21   29   19 1  
    22   20   21 1  
    23   21   22 ar 
    24   22   24 ar 
    25   21   23 ar 
    26   23   25 ar 
    27   24   26 ar 
    28   25   26 ar 
    29   26   27 1  
    30   27   30 ar 
    31   27   31 ar 
    32   29   16 am 
    33   32   33 1  
    34   32   37 1  
    35   33   34 1  
    36   34   35 1  
    37   35   36 1  
    38   36   37 1  
    39   12    4 ar 
    40    5    4 ar 
    41   14   38 1  
    42   15   39 1  
    43   15   40 1  
    44    4   41 1  
    45    6   42 1  
    46    7   43 1  
    47    8   44 1  
    48    9   45 1  
    49   10   46 1  
    50   11   47 1  
    51   19   48 1  
    52   20   49 1  
    53   20   50 1  
    54   22   51 1  
    55   23   52 1  
    56   24   53 1  
    57   25   54 1  
    58   29   55 1  
    59   30   56 1  
    60   30   57 1  
    61   31   58 1  
    62   31   59 1  
    63   33   60 1  
    64   33   61 1  
    65   34   62 1  
    66   34   63 1  
    67   35   64 1  
    68   35   65 1  
    69   36   66 1  
    70   36   67 1  
    71   37   68 1  
    72   37   69 1  
@<TRIPOS>SUBSTRUCTURE
     1 SUB1        1 GROUP

### 
### Created by X-TOOL on Tue Dec  2 13:04:55 2003
### 

@<TRIPOS>MOLECULE
1ppc-ligand.1ppc.093
   69    72     1     0     0
SMALL
MMFF94_CHARGES


@<TRIPOS>ATOM
      1 S           1.2660   -4.3230   17.8040 S.o2      1 SUB1        1.447
      2 O1          1.4040   -5.2570   16.5940 O.2       1 SUB1       -0.650
      3 O2          1.0700   -2.8870   17.3270 O.2       1 SUB1       -0.650
      4 C1          3.2000   -5.7110   19.2670 C.ar      1 SUB1       -0.150
      5 C2          2.7430   -4.5040   18.8050 C.ar      1 SUB1       -0.009
      6 C3          3.4080   -3.3620   19.1590 C.ar      1 SUB1       -0.150
      7 C4          4.4830   -3.4240   20.0140 C.ar      1 SUB1       -0.150
      8 C5          6.0180   -4.6740   21.3150 C.ar      1 SUB1       -0.150
      9 C6          6.4960   -5.8960   21.7540 C.ar      1 SUB1       -0.150
     10 C7          5.8550   -7.0640   21.3850 C.ar      1 SUB1       -0.150
     11 C8          4.7340   -7.0260   20.5700 C.ar      1 SUB1       -0.150
     12 C9          4.2950   -5.8040   20.1000 C.ar      1 SUB1        0.000
     13 C10         4.9240   -4.6430   20.4770 C.ar      1 SUB1        0.000
     14 N          -0.1470   -4.6280   18.6180 N.am      1 SUB1       -0.914
     15 CA         -0.3700   -3.7450   19.7370 C.3       1 SUB1        0.417
     16 C          -1.2050   -2.5150   19.4030 C.2       1 SUB1        0.569
     17 O          -1.8320   -1.8830   20.2620 O.2       1 SUB1       -0.570
     18 C          -0.8160   -0.2850   16.8370 C.2       1 SUB1        0.569
     19 CA         -1.9070   -1.1920   17.4070 C.3       1 SUB1        0.361
     20 CB         -2.8330   -1.6850   16.2830 C.3       1 SUB1        0.144
     21 CG         -2.2590   -2.8530   15.5070 C.ar      1 SUB1       -0.144
     22 CD1        -2.6150   -4.1520   15.8240 C.ar      1 SUB1       -0.150
     23 CD2        -1.4470   -2.6160   14.4220 C.ar      1 SUB1       -0.150
     24 CE1        -2.1330   -5.2140   15.0830 C.ar      1 SUB1       -0.150
     25 CE2        -0.9650   -3.6820   13.6890 C.ar      1 SUB1       -0.150
     26 CZ         -1.3160   -4.9920   13.9930 C.ar      1 SUB1       -0.022
     27 CF         -0.8650   -6.0450   13.1840 C.cat     1 SUB1        0.731
     28 O          -0.6780   -0.1620   15.6150 O.2       1 SUB1       -0.570
     29 N          -1.2420   -2.3010   18.0770 N.am      1 SUB1       -0.730
     30 NG1        -0.4330   -7.1970   13.7300 N.pl3     1 SUB1       -1.192
     31 NG2        -0.9360   -5.9000   11.8560 N.pl3     1 SUB1       -1.192
     32 N1         -0.0190    0.3860   17.6840 N.am      1 SUB1       -0.660
     33 C2         -0.2570    0.4460   19.1170 C.3       1 SUB1        0.300
     34 C3          0.9790   -0.0910   19.7990 C.3       1 SUB1        0.000
     35 C4          2.1230    0.8640   19.4940 C.3       1 SUB1        0.000
     36 C5          2.2920    0.8800   17.9770 C.3       1 SUB1        0.000
     37 C6          1.0340    1.2890   17.2400 C.3       1 SUB1        0.300
     38 H          -0.7830   -5.3550   18.3580 H         1 SUB1        0.420
     39 HA1        -0.8880   -4.3110   20.5260 H         1 SUB1        0.000
     40 HA2         0.6080   -3.4070   20.1110 H         1 SUB1        0.000
     41 H           2.6860   -6.6180   18.9700 H         1 SUB1        0.150
     42 H           3.0860   -2.4060   18.7640 H         1 SUB1        0.150
     43 H           4.9830   -2.5130   20.3250 H         1 SUB1        0.150
     44 H           6.4980   -3.7540   21.6270 H         1 SUB1        0.150
     45 H           7.3740   -5.9380   22.3880 H         1 SUB1        0.150
     46 H           6.2310   -8.0180   21.7360 H         1 SUB1        0.150
     47 H           4.2120   -7.9380   20.3060 H         1 SUB1        0.150
     48 H          -2.5070   -0.6300   18.1380 H         1 SUB1        0.000
     49 H          -3.0090   -0.8550   15.5850 H         1 SUB1        0.000
     50 H          -3.7880   -1.9980   16.7290 H         1 SUB1        0.000
     51 H          -3.2780   -4.3380   16.6620 H         1 SUB1        0.150
     52 H          -1.1890   -1.6000   14.1450 H         1 SUB1        0.150
     53 H          -2.3990   -6.2280   15.3600 H         1 SUB1        0.150
     54 H          -0.2970   -3.4920   12.8570 H         1 SUB1        0.150
     55 H          -0.7700   -2.9640   17.4960 H         1 SUB1        0.370
     56 H          -0.3330   -8.0390   13.1440 H         1 SUB1        0.669
     57 H          -0.2030   -7.2380   14.7330 H         1 SUB1        0.669
     58 H          -0.1160   -6.1140   11.2700 H         1 SUB1        0.669
     59 H          -1.8100   -5.5750   11.4190 H         1 SUB1        0.669
     60 H          -1.1300   -0.1690   19.3800 H         1 SUB1        0.000
     61 H          -0.4360    1.4870   19.4250 H         1 SUB1        0.000
     62 H           1.2140   -1.0940   19.4150 H         1 SUB1        0.000
     63 H           0.8150   -0.1440   20.8860 H         1 SUB1        0.000
     64 H           3.0480    0.5120   19.9730 H         1 SUB1        0.000
     65 H           1.8810    1.8720   19.8580 H         1 SUB1        0.000
     66 H           2.5780   -0.1290   17.6460 H         1 SUB1        0.000
     67 H           3.0930    1.5900   17.7220 H         1 SUB1        0.000
     68 H           0.7700    2.3290   17.4860 H         1 SUB1        0.000
     69 H           1.1820    1.1950   16.1540 H         1 SUB1        0.000
@<TRIPOS>BOND
     1   15   14 1  
     2   16   15 1  
     3   16   17 2  
     4    1    2 2  
     5    1    3 2  
     6    1    5 1  
     7   14    1 1  
     8    5    6 ar 
     9    6    7 ar 
    10    7   13 ar 
    11    8    9 ar 
    12   13    8 ar 
    13    9   10 ar 
    14   11   10 ar 
    15   12   11 ar 
    16   13   12 ar 
    17   19   18 1  
    18   18   28 2  
    19   18   32 am 
    20   19   20 1  
    21   29   19 1  
    22   20   21 1  
    23   21   22 ar 
    24   22   24 ar 
    25   21   23 ar 
    26   23   25 ar 
    27   24   26 ar 
    28   25   26 ar 
    29   26   27 1  
    30   27   30 ar 
    31   27   31 ar 
    32   29   16 am 
    33   32   33 1  
    34   32   37 1  
    35   33   34 1  
    36   34   35 1  
    37   35   36 1  
    38   36   37 1  
    39   12    4 ar 
    40    5    4 ar 
    41   14   38 1  
    42   15   39 1  
    43   15   40 1  
    44    4   41 1  
    45    6   42 1  
    46    7   43 1  
    47    8   44 1  
    48    9   45 1  
    49   10   46 1  
    50   11   47 1  
    51   19   48 1  
    52   20   49 1  
    53   20   50 1  
    54   22   51 1  
    55   23   52 1  
    56   24   53 1  
    57   25   54 1  
    58   29   55 1  
    59   30   56 1  
    60   30   57 1  
    61   31   58 1  
    62   31   59 1  
    63   33   60 1  
    64   33   61 1  
    65   34   62 1  
    66   34   63 1  
    67   35   64 1  
    68   35   65 1  
    69   36   66 1  
    70   36   67 1  
    71   37   68 1  
    72   37   69 1  
@<TRIPOS>SUBSTRUCTURE
     1 SUB1        1 GROUP

### 
### Created by X-TOOL on Tue Dec  2 13:04:55 2003
### 

@<TRIPOS>MOLECULE
1ppc-ligand.1ppc.094
   69    72     1     0     0
SMALL
MMFF94_CHARGES


@<TRIPOS>ATOM
      1 S          -5.7710    7.3000   33.7820 S.o2      1 SUB1        1.447
      2 O1         -6.1950    6.7150   35.1350 O.2       1 SUB1       -0.650
      3 O2         -4.3170    7.7600   33.8520 O.2       1 SUB1       -0.650
      4 C1         -7.5850    8.7390   32.2200 C.ar      1 SUB1       -0.150
      5 C2         -6.8860    8.6500   33.3950 C.ar      1 SUB1       -0.009
      6 C3         -6.9930    9.6600   34.3110 C.ar      1 SUB1       -0.150
      7 C4         -7.7470   10.7750   34.0260 C.ar      1 SUB1       -0.150
      8 C5         -9.2010   11.9740   32.5900 C.ar      1 SUB1       -0.150
      9 C6         -9.9290   12.0460   31.4170 C.ar      1 SUB1       -0.150
     10 C7         -9.8560   11.0230   30.4900 C.ar      1 SUB1       -0.150
     11 C8         -9.0590    9.9140   30.7280 C.ar      1 SUB1       -0.150
     12 C9         -8.3730    9.8310   31.9230 C.ar      1 SUB1        0.000
     13 C10        -8.4360   10.8530   32.8370 C.ar      1 SUB1        0.000
     14 N          -5.7160    6.1120   32.6250 N.am      1 SUB1       -0.914
     15 CA         -5.2660    6.5820   31.3370 C.3       1 SUB1        0.417
     16 C          -4.3490    5.6110   30.6040 C.2       1 SUB1        0.569
     17 O          -4.1710    4.4480   30.9860 O.2       1 SUB1       -0.570
     18 C          -3.2250    5.9980   27.2460 C.2       1 SUB1        0.569
     19 CA         -2.7920    5.5860   28.6530 C.3       1 SUB1        0.361
     20 CB         -1.3380    6.0130   28.9110 C.3       1 SUB1        0.144
     21 CG         -1.1930    6.9550   30.0890 C.ar      1 SUB1       -0.144
     22 CD1        -0.8270    6.4740   31.3340 C.ar      1 SUB1       -0.150
     23 CD2        -1.3380    8.3090   29.8990 C.ar      1 SUB1       -0.150
     24 CE1        -0.6430    7.3390   32.3950 C.ar      1 SUB1       -0.150
     25 CE2        -1.1580    9.1680   30.9650 C.ar      1 SUB1       -0.150
     26 CZ         -0.7880    8.7010   32.2200 C.ar      1 SUB1       -0.022
     27 CF         -0.5440    9.6070   33.2630 C.cat     1 SUB1        0.731
     28 O          -3.7180    7.1130   27.0440 O.2       1 SUB1       -0.570
     29 N          -3.7080    6.2200   29.5910 N.am      1 SUB1       -0.730
     30 NG1        -1.3660    9.6730   34.3260 N.pl3     1 SUB1       -1.192
     31 NG2         0.5620   10.3580   33.2050 N.pl3     1 SUB1       -1.192
     32 N1         -3.0490    5.1360   26.2320 N.am      1 SUB1       -0.660
     33 C2         -2.2940    3.9000   26.3640 C.3       1 SUB1        0.300
     34 C3         -3.2180    2.7680   25.9810 C.3       1 SUB1        0.000
     35 C4         -3.5570    2.9320   24.5080 C.3       1 SUB1        0.000
     36 C5         -4.2490    4.2840   24.3600 C.3       1 SUB1        0.000
     37 C6         -3.4080    5.4420   24.8550 C.3       1 SUB1        0.300
     38 H          -5.9690    5.1610   32.8030 H         1 SUB1        0.420
     39 HA1        -6.1510    6.7640   30.7070 H         1 SUB1        0.000
     40 HA2        -4.7220    7.5260   31.4840 H         1 SUB1        0.000
     41 H          -7.5160    7.9290   31.5030 H         1 SUB1        0.150
     42 H          -6.4840    9.5810   35.2640 H         1 SUB1        0.150
     43 H          -7.7980   11.5920   34.7380 H         1 SUB1        0.150
     44 H          -9.2300   12.7880   33.3060 H         1 SUB1        0.150
     45 H         -10.5600   12.9070   31.2240 H         1 SUB1        0.150
     46 H         -10.4260   11.0890   29.5710 H         1 SUB1        0.150
     47 H          -8.9760    9.1260   29.9880 H         1 SUB1        0.150
     48 H          -2.8630    4.4930   28.7560 H         1 SUB1        0.000
     49 H          -0.9570    6.5170   28.0120 H         1 SUB1        0.000
     50 H          -0.7390    5.1120   29.1090 H         1 SUB1        0.000
     51 H          -0.6840    5.4090   31.4780 H         1 SUB1        0.150
     52 H          -1.5920    8.6990   28.9200 H         1 SUB1        0.150
     53 H          -0.3830    6.9460   33.3710 H         1 SUB1        0.150
     54 H          -1.3080   10.2310   30.8190 H         1 SUB1        0.150
     55 H          -3.8760    7.1980   29.4710 H         1 SUB1        0.370
     56 H          -2.0290    8.9070   34.5130 H         1 SUB1        0.669
     57 H          -1.3330   10.4890   34.9530 H         1 SUB1        0.669
     58 H           1.3700   10.1320   33.8020 H         1 SUB1        0.669
     59 H           0.6050   11.1620   32.5630 H         1 SUB1        0.669
     60 H          -1.9550    3.7750   27.4040 H         1 SUB1        0.000
     61 H          -1.4220    3.9180   25.6940 H         1 SUB1        0.000
     62 H          -4.1360    2.8120   26.5850 H         1 SUB1        0.000
     63 H          -2.7170    1.8030   26.1460 H         1 SUB1        0.000
     64 H          -4.2300    2.1250   24.1820 H         1 SUB1        0.000
     65 H          -2.6390    2.9100   23.9030 H         1 SUB1        0.000
     66 H          -5.1860    4.2610   24.9360 H         1 SUB1        0.000
     67 H          -4.4770    4.4460   23.2960 H         1 SUB1        0.000
     68 H          -2.5020    5.5440   24.2400 H         1 SUB1        0.000
     69 H          -3.9870    6.3770   24.8120 H         1 SUB1        0.000
@<TRIPOS>BOND
     1   15   14 1  
     2   16   15 1  
     3   16   17 2  
     4    1    2 2  
     5    1    3 2  
     6    1    5 1  
     7   14    1 1  
     8    5    6 ar 
     9    6    7 ar 
    10    7   13 ar 
    11    8    9 ar 
    12   13    8 ar 
    13    9   10 ar 
    14   11   10 ar 
    15   12   11 ar 
    16   13   12 ar 
    17   19   18 1  
    18   18   28 2  
    19   18   32 am 
    20   19   20 1  
    21   29   19 1  
    22   20   21 1  
    23   21   22 ar 
    24   22   24 ar 
    25   21   23 ar 
    26   23   25 ar 
    27   24   26 ar 
    28   25   26 ar 
    29   26   27 1  
    30   27   30 ar 
    31   27   31 ar 
    32   29   16 am 
    33   32   33 1  
    34   32   37 1  
    35   33   34 1  
    36   34   35 1  
    37   35   36 1  
    38   36   37 1  
    39   12    4 ar 
    40    5    4 ar 
    41   14   38 1  
    42   15   39 1  
    43   15   40 1  
    44    4   41 1  
    45    6   42 1  
    46    7   43 1  
    47    8   44 1  
    48    9   45 1  
    49   10   46 1  
    50   11   47 1  
    51   19   48 1  
    52   20   49 1  
    53   20   50 1  
    54   22   51 1  
    55   23   52 1  
    56   24   53 1  
    57   25   54 1  
    58   29   55 1  
    59   30   56 1  
    60   30   57 1  
    61   31   58 1  
    62   31   59 1  
    63   33   60 1  
    64   33   61 1  
    65   34   62 1  
    66   34   63 1  
    67   35   64 1  
    68   35   65 1  
    69   36   66 1  
    70   36   67 1  
    71   37   68 1  
    72   37   69 1  
@<TRIPOS>SUBSTRUCTURE
     1 SUB1        1 GROUP

### 
### Created by X-TOOL on Tue Dec  2 13:04:55 2003
### 

@<TRIPOS>MOLECULE
1ppc-ligand.1ppc.095
   69    72     1     0     0
SMALL
MMFF94_CHARGES


@<TRIPOS>ATOM
      1 S           0.3580    0.8460   26.7180 S.o2      1 SUB1        1.447
      2 O1         -0.8360    0.5820   25.7920 O.2       1 SUB1       -0.650
      3 O2          0.6770   -0.4130   27.5190 O.2       1 SUB1       -0.650
      4 C1         -0.9350    3.2230   27.4110 C.ar      1 SUB1       -0.150
      5 C2         -0.0670    2.2280   27.7790 C.ar      1 SUB1       -0.009
      6 C3          0.5550    2.3040   28.9940 C.ar      1 SUB1       -0.150
      7 C4          0.3550    3.3960   29.8070 C.ar      1 SUB1       -0.150
      8 C5         -0.7100    5.4620   30.2660 C.ar      1 SUB1       -0.150
      9 C6         -1.6100    6.4480   29.9060 C.ar      1 SUB1       -0.150
     10 C7         -2.2700    6.3750   28.6930 C.ar      1 SUB1       -0.150
     11 C8         -2.0440    5.3150   27.8300 C.ar      1 SUB1       -0.150
     12 C9         -1.1780    4.3120   28.2210 C.ar      1 SUB1        0.000
     13 C10        -0.5130    4.3910   29.4190 C.ar      1 SUB1        0.000
     14 N           1.7440    1.0690   25.8330 N.am      1 SUB1       -0.914
     15 CA          2.9210    1.2660   26.6450 C.3       1 SUB1        0.417
     16 C           3.3510    0.0310   27.4270 C.2       1 SUB1        0.569
     17 O           3.8420    0.0990   28.5600 O.2       1 SUB1       -0.570
     18 C           2.1540   -3.1630   27.2370 C.2       1 SUB1        0.569
     19 CA          3.4980   -2.4420   27.1240 C.3       1 SUB1        0.361
     20 CB          4.4180   -3.1790   26.1380 C.3       1 SUB1        0.144
     21 CG          5.8580   -2.7110   26.2030 C.ar      1 SUB1       -0.144
     22 CD1         6.2690   -1.5990   25.4900 C.ar      1 SUB1       -0.150
     23 CD2         6.7420   -3.3440   27.0460 C.ar      1 SUB1       -0.150
     24 CE1         7.5690   -1.1410   25.5910 C.ar      1 SUB1       -0.150
     25 CE2         8.0400   -2.8850   27.1370 C.ar      1 SUB1       -0.150
     26 CZ          8.4680   -1.7670   26.4310 C.ar      1 SUB1       -0.022
     27 CF          9.7740   -1.2860   26.6020 C.cat     1 SUB1        0.731
     28 O           1.6650   -3.7350   26.2570 O.2       1 SUB1       -0.570
     29 N           3.2230   -1.0820   26.6840 N.am      1 SUB1       -0.730
     30 NG1        10.0620    0.0140   26.4000 N.pl3     1 SUB1       -1.192
     31 NG2        10.7130   -2.1360   27.0330 N.pl3     1 SUB1       -1.192
     32 N1          1.5210   -3.1780   28.4220 N.am      1 SUB1       -0.660
     33 C2          2.1320   -2.7050   29.6540 C.3       1 SUB1        0.300
     34 C3          1.2430   -1.6170   30.2060 C.3       1 SUB1        0.000
     35 C4         -0.0850   -2.2570   30.5800 C.3       1 SUB1        0.000
     36 C5         -0.6680   -2.8490   29.3000 C.3       1 SUB1        0.000
     37 C6          0.2500   -3.8550   28.6360 C.3       1 SUB1        0.300
     38 H           1.7620    1.0680   24.8340 H         1 SUB1        0.420
     39 HA1         3.7500    1.5640   25.9860 H         1 SUB1        0.000
     40 HA2         2.7150    2.0740   27.3620 H         1 SUB1        0.000
     41 H          -1.4440    3.1520   26.4570 H         1 SUB1        0.150
     42 H           1.2080    1.5020   29.3170 H         1 SUB1        0.150
     43 H           0.8810    3.4720   30.7520 H         1 SUB1        0.150
     44 H          -0.1660    5.5300   31.2010 H         1 SUB1        0.150
     45 H          -1.7980    7.2800   30.5760 H         1 SUB1        0.150
     46 H          -2.9710    7.1540   28.4150 H         1 SUB1        0.150
     47 H          -2.5370    5.2730   26.8660 H         1 SUB1        0.150
     48 H           3.9860   -2.4150   28.1100 H         1 SUB1        0.000
     49 H           4.0420   -3.0120   25.1180 H         1 SUB1        0.000
     50 H           4.3890   -4.2540   26.3680 H         1 SUB1        0.000
     51 H           5.5650   -1.0820   24.8480 H         1 SUB1        0.150
     52 H           6.4210   -4.1970   27.6340 H         1 SUB1        0.150
     53 H           7.8850   -0.2840   25.0060 H         1 SUB1        0.150
     54 H           8.7430   -3.4080   27.7750 H         1 SUB1        0.150
     55 H           2.9100   -0.9650   25.7410 H         1 SUB1        0.370
     56 H          10.1230    0.6580   27.2010 H         1 SUB1        0.669
     57 H          10.2220    0.3630   25.4450 H         1 SUB1        0.669
     58 H          11.2330   -2.7160   26.3580 H         1 SUB1        0.669
     59 H          10.9150   -2.2120   28.0400 H         1 SUB1        0.669
     60 H           3.1360   -2.3040   29.4460 H         1 SUB1        0.000
     61 H           2.2110   -3.5320   30.3760 H         1 SUB1        0.000
     62 H           1.0840   -0.8390   29.4450 H         1 SUB1        0.000
     63 H           1.7070   -1.1690   31.0970 H         1 SUB1        0.000
     64 H          -0.7680   -1.4990   30.9910 H         1 SUB1        0.000
     65 H           0.0730   -3.0500   31.3250 H         1 SUB1        0.000
     66 H          -0.8590   -2.0300   28.5920 H         1 SUB1        0.000
     67 H          -1.6160   -3.3500   29.5460 H         1 SUB1        0.000
     68 H           0.3910   -4.7290   29.2890 H         1 SUB1        0.000
     69 H          -0.1740   -4.1800   27.6750 H         1 SUB1        0.000
@<TRIPOS>BOND
     1   15   14 1  
     2   16   15 1  
     3   16   17 2  
     4    1    2 2  
     5    1    3 2  
     6    1    5 1  
     7   14    1 1  
     8    5    6 ar 
     9    6    7 ar 
    10    7   13 ar 
    11    8    9 ar 
    12   13    8 ar 
    13    9   10 ar 
    14   11   10 ar 
    15   12   11 ar 
    16   13   12 ar 
    17   19   18 1  
    18   18   28 2  
    19   18   32 am 
    20   19   20 1  
    21   29   19 1  
    22   20   21 1  
    23   21   22 ar 
    24   22   24 ar 
    25   21   23 ar 
    26   23   25 ar 
    27   24   26 ar 
    28   25   26 ar 
    29   26   27 1  
    30   27   30 ar 
    31   27   31 ar 
    32   29   16 am 
    33   32   33 1  
    34   32   37 1  
    35   33   34 1  
    36   34   35 1  
    37   35   36 1  
    38   36   37 1  
    39   12    4 ar 
    40    5    4 ar 
    41   14   38 1  
    42   15   39 1  
    43   15   40 1  
    44    4   41 1  
    45    6   42 1  
    46    7   43 1  
    47    8   44 1  
    48    9   45 1  
    49   10   46 1  
    50   11   47 1  
    51   19   48 1  
    52   20   49 1  
    53   20   50 1  
    54   22   51 1  
    55   23   52 1  
    56   24   53 1  
    57   25   54 1  
    58   29   55 1  
    59   30   56 1  
    60   30   57 1  
    61   31   58 1  
    62   31   59 1  
    63   33   60 1  
    64   33   61 1  
    65   34   62 1  
    66   34   63 1  
    67   35   64 1  
    68   35   65 1  
    69   36   66 1  
    70   36   67 1  
    71   37   68 1  
    72   37   69 1  
@<TRIPOS>SUBSTRUCTURE
     1 SUB1        1 GROUP

### 
### Created by X-TOOL on Tue Dec  2 13:04:55 2003
### 

@<TRIPOS>MOLECULE
1ppc-ligand.1ppc.096
   69    72     1     0     0
SMALL
MMFF94_CHARGES


@<TRIPOS>ATOM
      1 S          -5.6040    4.7800   20.5730 S.o2      1 SUB1        1.447
      2 O1         -5.4740    5.9990   19.6500 O.2       1 SUB1       -0.650
      3 O2         -6.9670    4.7960   21.2590 O.2       1 SUB1       -0.650
      4 C1         -2.9650    4.4980   21.4440 C.ar      1 SUB1       -0.150
      5 C2         -4.2550    4.8410   21.7540 C.ar      1 SUB1       -0.009
      6 C3         -4.5580    5.2010   23.0370 C.ar      1 SUB1       -0.150
      7 C4         -3.5900    5.1620   24.0140 C.ar      1 SUB1       -0.150
      8 C5         -1.3470    4.7980   24.6860 C.ar      1 SUB1       -0.150
      9 C6         -0.0400    4.4830   24.3640 C.ar      1 SUB1       -0.150
     10 C7          0.2920    4.1430   23.0660 C.ar      1 SUB1       -0.150
     11 C8         -0.6760    4.1190   22.0740 C.ar      1 SUB1       -0.150
     12 C9         -1.9690    4.4820   22.3970 C.ar      1 SUB1        0.000
     13 C10        -2.3010    4.8070   23.6890 C.ar      1 SUB1        0.000
     14 N          -5.6660    3.3800   19.6840 N.am      1 SUB1       -0.914
     15 CA         -5.8470    2.1950   20.4870 C.3       1 SUB1        0.417
     16 C          -7.2190    2.0890   21.1410 C.2       1 SUB1        0.569
     17 O          -7.3690    2.0360   22.3680 O.2       1 SUB1       -0.570
     18 C         -10.3210    1.7470   19.1300 C.2       1 SUB1        0.569
     19 CA         -9.6170    1.8750   20.4810 C.3       1 SUB1        0.361
     20 CB         -9.9570    0.6740   21.3780 C.3       1 SUB1        0.144
     21 CG        -11.1470    0.9230   22.2820 C.ar      1 SUB1       -0.144
     22 CD1       -12.4340    0.8840   21.7770 C.ar      1 SUB1       -0.150
     23 CD2       -10.9510    1.1000   23.6310 C.ar      1 SUB1       -0.150
     24 CE1       -13.5220    1.0580   22.6110 C.ar      1 SUB1       -0.150
     25 CE2       -12.0410    1.2790   24.4590 C.ar      1 SUB1       -0.150
     26 CZ        -13.3410    1.2390   23.9680 C.ar      1 SUB1       -0.022
     27 CF        -14.4270    1.3530   24.8470 C.cat     1 SUB1        0.731
     28 O         -10.7440    0.6520   18.7450 O.2       1 SUB1       -0.570
     29 N          -8.1870    1.9570   20.2170 N.am      1 SUB1       -0.730
     30 NG1       -15.1020    0.2620   25.2560 N.pl3     1 SUB1       -1.192
     31 NG2       -14.7360    2.5660   25.3200 N.pl3     1 SUB1       -1.192
     32 N1        -10.4850    2.8450   18.3750 N.am      1 SUB1       -0.660
     33 C2        -10.1960    4.1880   18.8530 C.3       1 SUB1        0.300
     34 C3         -9.1770    4.7890   17.9150 C.3       1 SUB1        0.000
     35 C4         -9.8370    4.9300   16.5520 C.3       1 SUB1        0.000
     36 C5        -10.2380    3.5270   16.1060 C.3       1 SUB1        0.000
     37 C6        -11.1610    2.8310   17.0850 C.3       1 SUB1        0.300
     38 H          -5.5850    3.3600   18.6870 H         1 SUB1        0.420
     39 HA1        -5.7030    1.3150   19.8420 H         1 SUB1        0.000
     40 HA2        -5.0850    2.1960   21.2810 H         1 SUB1        0.000
     41 H          -2.7200    4.2330   20.4220 H         1 SUB1        0.150
     42 H          -5.5640    5.5190   23.2860 H         1 SUB1        0.150
     43 H          -3.8430    5.4100   25.0390 H         1 SUB1        0.150
     44 H          -1.6190    5.0350   25.7080 H         1 SUB1        0.150
     45 H           0.7260    4.5030   25.1310 H         1 SUB1        0.150
     46 H           1.3180    3.8920   22.8220 H         1 SUB1        0.150
     47 H          -0.4220    3.8220   21.0630 H         1 SUB1        0.150
     48 H          -9.9480    2.7970   20.9840 H         1 SUB1        0.000
     49 H          -9.0830    0.4470   22.0050 H         1 SUB1        0.000
     50 H         -10.1810   -0.1900   20.7350 H         1 SUB1        0.000
     51 H         -12.5910    0.7150   20.7170 H         1 SUB1        0.150
     52 H          -9.9470    1.0990   24.0420 H         1 SUB1        0.150
     53 H         -14.5240    1.0520   22.1980 H         1 SUB1        0.150
     54 H         -11.8800    1.4530   25.5160 H         1 SUB1        0.150
     55 H          -7.8980    1.9090   19.2610 H         1 SUB1        0.370
     56 H         -16.0280    0.3640   25.6940 H         1 SUB1        0.669
     57 H         -14.6910   -0.6740   25.1300 H         1 SUB1        0.669
     58 H         -14.0100    3.1470   25.7630 H         1 SUB1        0.669
     59 H         -15.7000    2.9200   25.2410 H         1 SUB1        0.669
     60 H          -9.7890    4.1440   19.8750 H         1 SUB1        0.000
     61 H         -11.1150    4.7930   18.8510 H         1 SUB1        0.000
     62 H          -8.3000    4.1290   17.8410 H         1 SUB1        0.000
     63 H          -8.8630    5.7760   18.2840 H         1 SUB1        0.000
     64 H          -9.1290    5.3670   15.8320 H         1 SUB1        0.000
     65 H         -10.7260    5.5710   16.6270 H         1 SUB1        0.000
     66 H          -9.3260    2.9220   15.9950 H         1 SUB1        0.000
     67 H         -10.7500    3.6010   15.1350 H         1 SUB1        0.000
     68 H         -12.1180    3.3680   17.1520 H         1 SUB1        0.000
     69 H         -11.3430    1.7950   16.7630 H         1 SUB1        0.000
@<TRIPOS>BOND
     1   15   14 1  
     2   16   15 1  
     3   16   17 2  
     4    1    2 2  
     5    1    3 2  
     6    1    5 1  
     7   14    1 1  
     8    5    6 ar 
     9    6    7 ar 
    10    7   13 ar 
    11    8    9 ar 
    12   13    8 ar 
    13    9   10 ar 
    14   11   10 ar 
    15   12   11 ar 
    16   13   12 ar 
    17   19   18 1  
    18   18   28 2  
    19   18   32 am 
    20   19   20 1  
    21   29   19 1  
    22   20   21 1  
    23   21   22 ar 
    24   22   24 ar 
    25   21   23 ar 
    26   23   25 ar 
    27   24   26 ar 
    28   25   26 ar 
    29   26   27 1  
    30   27   30 ar 
    31   27   31 ar 
    32   29   16 am 
    33   32   33 1  
    34   32   37 1  
    35   33   34 1  
    36   34   35 1  
    37   35   36 1  
    38   36   37 1  
    39   12    4 ar 
    40    5    4 ar 
    41   14   38 1  
    42   15   39 1  
    43   15   40 1  
    44    4   41 1  
    45    6   42 1  
    46    7   43 1  
    47    8   44 1  
    48    9   45 1  
    49   10   46 1  
    50   11   47 1  
    51   19   48 1  
    52   20   49 1  
    53   20   50 1  
    54   22   51 1  
    55   23   52 1  
    56   24   53 1  
    57   25   54 1  
    58   29   55 1  
    59   30   56 1  
    60   30   57 1  
    61   31   58 1  
    62   31   59 1  
    63   33   60 1  
    64   33   61 1  
    65   34   62 1  
    66   34   63 1  
    67   35   64 1  
    68   35   65 1  
    69   36   66 1  
    70   36   67 1  
    71   37   68 1  
    72   37   69 1  
@<TRIPOS>SUBSTRUCTURE
     1 SUB1        1 GROUP

### 
### Created by X-TOOL on Tue Dec  2 13:04:55 2003
### 

@<TRIPOS>MOLECULE
1ppc-ligand.1ppc.097
   69    72     1     0     0
SMALL
MMFF94_CHARGES


@<TRIPOS>ATOM
      1 S          -8.5990    3.6450   29.7190 S.o2      1 SUB1        1.447
      2 O1        -10.0560    3.5010   29.2580 O.2       1 SUB1       -0.650
      3 O2         -8.3350    2.7080   30.8940 O.2       1 SUB1       -0.650
      4 C1         -8.9340    6.4100   29.5080 C.ar      1 SUB1       -0.150
      5 C2         -8.3300    5.3640   30.1550 C.ar      1 SUB1       -0.009
      6 C3         -7.4350    5.6270   31.1540 C.ar      1 SUB1       -0.150
      7 C4         -7.1030    6.9260   31.4620 C.ar      1 SUB1       -0.150
      8 C5         -7.3740    9.2580   31.1430 C.ar      1 SUB1       -0.150
      9 C6         -8.0080   10.3120   30.5100 C.ar      1 SUB1       -0.150
     10 C7         -8.9380   10.0660   29.5160 C.ar      1 SUB1       -0.150
     11 C8         -9.2480    8.7670   29.1480 C.ar      1 SUB1       -0.150
     12 C9         -8.6430    7.7220   29.8190 C.ar      1 SUB1        0.000
     13 C10        -7.7110    7.9660   30.7970 C.ar      1 SUB1        0.000
     14 N          -7.5620    3.0680   28.5590 N.am      1 SUB1       -0.914
     15 CA         -6.1740    3.1200   28.9510 C.3       1 SUB1        0.417
     16 C          -5.2260    3.5320   27.8310 C.2       1 SUB1        0.569
     17 O          -4.1580    2.9460   27.6140 O.2       1 SUB1       -0.570
     18 C          -6.0290    5.2630   24.9220 C.2       1 SUB1        0.569
     19 CA         -5.0260    5.2950   26.0760 C.3       1 SUB1        0.361
     20 CB         -4.6300    6.7450   26.4000 C.3       1 SUB1        0.144
     21 CG         -3.7510    6.8630   27.6290 C.ar      1 SUB1       -0.144
     22 CD1        -4.2890    7.2490   28.8440 C.ar      1 SUB1       -0.150
     23 CD2        -2.4270    6.4980   27.5560 C.ar      1 SUB1       -0.150
     24 CE1        -3.4990    7.3050   29.9760 C.ar      1 SUB1       -0.150
     25 CE2        -1.6420    6.5620   28.6890 C.ar      1 SUB1       -0.150
     26 CZ         -2.1670    6.9440   29.9180 C.ar      1 SUB1       -0.022
     27 CF         -1.3580    6.9300   31.0630 C.cat     1 SUB1        0.731
     28 O          -7.2050    5.5960   25.1050 O.2       1 SUB1       -0.570
     29 N          -5.6570    4.6470   27.2160 N.am      1 SUB1       -0.730
     30 NG1        -0.4980    7.9340   31.3120 N.pl3     1 SUB1       -1.192
     31 NG2        -1.5090    5.9250   31.9340 N.pl3     1 SUB1       -1.192
     32 N1         -5.6080    4.8820   23.7050 N.am      1 SUB1       -0.660
     33 C2         -4.2070    4.6770   23.3780 C.3       1 SUB1        0.300
     34 C3         -4.0650    3.2570   22.8840 C.3       1 SUB1        0.000
     35 C4         -4.8500    3.1420   21.5870 C.3       1 SUB1        0.000
     36 C5         -6.3030    3.4690   21.9190 C.3       1 SUB1        0.000
     37 C6         -6.4800    4.8390   22.5390 C.3       1 SUB1        0.300
     38 H          -7.8690    2.7190   27.6740 H         1 SUB1        0.420
     39 HA1        -6.0730    3.8440   29.7720 H         1 SUB1        0.000
     40 HA2        -5.8770    2.1210   29.3040 H         1 SUB1        0.000
     41 H          -9.6590    6.2020   28.7300 H         1 SUB1        0.150
     42 H          -6.9850    4.8100   31.7060 H         1 SUB1        0.150
     43 H          -6.3630    7.1300   32.2280 H         1 SUB1        0.150
     44 H          -6.6220    9.4450   31.9010 H         1 SUB1        0.150
     45 H          -7.7770   11.3320   30.7940 H         1 SUB1        0.150
     46 H          -9.4270   10.8970   29.0210 H         1 SUB1        0.150
     47 H          -9.9530    8.5740   28.3470 H         1 SUB1        0.150
     48 H          -4.1210    4.7370   25.7930 H         1 SUB1        0.000
     49 H          -5.5470    7.3280   26.5690 H         1 SUB1        0.000
     50 H          -4.0850    7.1600   25.5390 H         1 SUB1        0.000
     51 H          -5.3390    7.5090   28.9080 H         1 SUB1        0.150
     52 H          -2.0040    6.1620   26.6160 H         1 SUB1        0.150
     53 H          -3.9270    7.6350   30.9150 H         1 SUB1        0.150
     54 H          -0.5910    6.3070   28.6190 H         1 SUB1        0.150
     55 H          -6.4890    5.0710   27.5760 H         1 SUB1        0.370
     56 H           0.4890    7.8510   31.0280 H         1 SUB1        0.669
     57 H          -0.8250    8.7860   31.7880 H         1 SUB1        0.669
     58 H          -2.4240    5.4630   32.0350 H         1 SUB1        0.669
     59 H          -0.7100    5.6130   32.5040 H         1 SUB1        0.669
     60 H          -3.5850    4.8290   24.2730 H         1 SUB1        0.000
     61 H          -3.8970    5.3820   22.5920 H         1 SUB1        0.000
     62 H          -4.4690    2.5580   23.6310 H         1 SUB1        0.000
     63 H          -3.0050    3.0270   22.7030 H         1 SUB1        0.000
     64 H          -4.7740    2.1200   21.1870 H         1 SUB1        0.000
     65 H          -4.4620    3.8550   20.8460 H         1 SUB1        0.000
     66 H          -6.6790    2.7140   22.6250 H         1 SUB1        0.000
     67 H          -6.8920    3.4280   20.9900 H         1 SUB1        0.000
     68 H          -6.1930    5.6220   21.8220 H         1 SUB1        0.000
     69 H          -7.5270    4.9860   22.8430 H         1 SUB1        0.000
@<TRIPOS>BOND
     1   15   14 1  
     2   16   15 1  
     3   16   17 2  
     4    1    2 2  
     5    1    3 2  
     6    1    5 1  
     7   14    1 1  
     8    5    6 ar 
     9    6    7 ar 
    10    7   13 ar 
    11    8    9 ar 
    12   13    8 ar 
    13    9   10 ar 
    14   11   10 ar 
    15   12   11 ar 
    16   13   12 ar 
    17   19   18 1  
    18   18   28 2  
    19   18   32 am 
    20   19   20 1  
    21   29   19 1  
    22   20   21 1  
    23   21   22 ar 
    24   22   24 ar 
    25   21   23 ar 
    26   23   25 ar 
    27   24   26 ar 
    28   25   26 ar 
    29   26   27 1  
    30   27   30 ar 
    31   27   31 ar 
    32   29   16 am 
    33   32   33 1  
    34   32   37 1  
    35   33   34 1  
    36   34   35 1  
    37   35   36 1  
    38   36   37 1  
    39   12    4 ar 
    40    5    4 ar 
    41   14   38 1  
    42   15   39 1  
    43   15   40 1  
    44    4   41 1  
    45    6   42 1  
    46    7   43 1  
    47    8   44 1  
    48    9   45 1  
    49   10   46 1  
    50   11   47 1  
    51   19   48 1  
    52   20   49 1  
    53   20   50 1  
    54   22   51 1  
    55   23   52 1  
    56   24   53 1  
    57   25   54 1  
    58   29   55 1  
    59   30   56 1  
    60   30   57 1  
    61   31   58 1  
    62   31   59 1  
    63   33   60 1  
    64   33   61 1  
    65   34   62 1  
    66   34   63 1  
    67   35   64 1  
    68   35   65 1  
    69   36   66 1  
    70   36   67 1  
    71   37   68 1  
    72   37   69 1  
@<TRIPOS>SUBSTRUCTURE
     1 SUB1        1 GROUP

### 
### Created by X-TOOL on Tue Dec  2 13:04:55 2003
### 

@<TRIPOS>MOLECULE
1ppc-ligand.1ppc.098
   69    72     1     0     0
SMALL
MMFF94_CHARGES


@<TRIPOS>ATOM
      1 S          -2.2600    6.8670   28.6440 S.o2      1 SUB1        1.447
      2 O1         -0.9590    7.6180   28.9530 O.2       1 SUB1       -0.650
      3 O2         -3.4580    7.7610   28.9530 O.2       1 SUB1       -0.650
      4 C1         -1.1840    4.5410   29.7560 C.ar      1 SUB1       -0.150
      5 C2         -2.2710    5.3650   29.6240 C.ar      1 SUB1       -0.009
      6 C3         -3.4490    5.0120   30.2220 C.ar      1 SUB1       -0.150
      7 C4         -3.5520    3.8170   30.8960 C.ar      1 SUB1       -0.150
      8 C5         -2.5820    1.8160   31.7140 C.ar      1 SUB1       -0.150
      9 C6         -1.4750    1.0030   31.8720 C.ar      1 SUB1       -0.150
     10 C7         -0.2680    1.3560   31.2980 C.ar      1 SUB1       -0.150
     11 C8         -0.1510    2.5270   30.5660 C.ar      1 SUB1       -0.150
     12 C9         -1.2520    3.3540   30.4540 C.ar      1 SUB1        0.000
     13 C10        -2.4540    2.9970   31.0130 C.ar      1 SUB1        0.000
     14 N          -2.4130    6.6130   27.0110 N.am      1 SUB1       -0.914
     15 CA         -3.6460    5.9610   26.6420 C.3       1 SUB1        0.417
     16 C          -3.4550    4.6470   25.8940 C.2       1 SUB1        0.569
     17 O          -2.6230    3.7990   26.2390 O.2       1 SUB1       -0.570
     18 C          -5.3670    2.5250   24.4250 C.2       1 SUB1        0.569
     19 CA         -4.3210    3.4860   23.8600 C.3       1 SUB1        0.361
     20 CB         -4.7290    3.9540   22.4550 C.3       1 SUB1        0.144
     21 CG         -3.6390    4.7320   21.7450 C.ar      1 SUB1       -0.144
     22 CD1        -2.6710    4.0740   21.0090 C.ar      1 SUB1       -0.150
     23 CD2        -3.6660    6.1070   21.7600 C.ar      1 SUB1       -0.150
     24 CE1        -1.7080    4.7860   20.3180 C.ar      1 SUB1       -0.150
     25 CE2        -2.6980    6.8120   21.0720 C.ar      1 SUB1       -0.150
     26 CZ         -1.7200    6.1660   20.3250 C.ar      1 SUB1       -0.022
     27 CF         -0.7960    6.9140   19.5820 C.cat     1 SUB1        0.731
     28 O          -5.0450    1.3860   24.7800 O.2       1 SUB1       -0.570
     29 N          -4.2170    4.6050   24.7870 N.am      1 SUB1       -0.730
     30 NG1         0.4600    6.4680   19.3930 N.pl3     1 SUB1       -1.192
     31 NG2        -1.2120    8.0500   19.0100 N.pl3     1 SUB1       -1.192
     32 N1         -6.6380    2.9420   24.5430 N.am      1 SUB1       -0.660
     33 C2         -7.0410    4.3240   24.3390 C.3       1 SUB1        0.300
     34 C3         -8.0870    4.3280   23.2490 C.3       1 SUB1        0.000
     35 C4         -9.3010    3.5790   23.7750 C.3       1 SUB1        0.000
     36 C5         -8.8410    2.1590   24.0940 C.3       1 SUB1        0.000
     37 C6         -7.7010    2.1100   25.0890 C.3       1 SUB1        0.300
     38 H          -1.7180    6.8870   26.3470 H         1 SUB1        0.420
     39 HA1        -4.2170    5.7550   27.5600 H         1 SUB1        0.000
     40 HA2        -4.2200    6.6440   25.9990 H         1 SUB1        0.000
     41 H          -0.2440    4.8310   29.3000 H         1 SUB1        0.150
     42 H          -4.3040    5.6760   30.1650 H         1 SUB1        0.150
     43 H          -4.4990    3.5220   31.3360 H         1 SUB1        0.150
     44 H          -3.5390    1.5290   32.1350 H         1 SUB1        0.150
     45 H          -1.5540    0.0870   32.4470 H         1 SUB1        0.150
     46 H           0.5950    0.7110   31.4220 H         1 SUB1        0.150
     47 H           0.7860    2.7880   30.0890 H         1 SUB1        0.150
     48 H          -3.3480    2.9750   23.7940 H         1 SUB1        0.000
     49 H          -5.6160    4.5980   22.5450 H         1 SUB1        0.000
     50 H          -4.9780    3.0700   21.8500 H         1 SUB1        0.000
     51 H          -2.6670    2.9900   20.9730 H         1 SUB1        0.150
     52 H          -4.4400    6.6330   22.3060 H         1 SUB1        0.150
     53 H          -0.9400    4.2560   19.7670 H         1 SUB1        0.150
     54 H          -2.7020    7.8950   21.1160 H         1 SUB1        0.150
     55 H          -4.7620    5.4170   24.5800 H         1 SUB1        0.370
     56 H           1.2580    7.1070   19.5160 H         1 SUB1        0.669
     57 H           0.6230    5.4870   19.1260 H         1 SUB1        0.669
     58 H          -2.1150    8.4640   19.2840 H         1 SUB1        0.669
     59 H          -0.6300    8.5110   18.2970 H         1 SUB1        0.669
     60 H          -6.1740    4.9280   24.0330 H         1 SUB1        0.000
     61 H          -7.4640    4.7340   25.2680 H         1 SUB1        0.000
     62 H          -7.6950    3.8260   22.3510 H         1 SUB1        0.000
     63 H          -8.3640    5.3630   22.9990 H         1 SUB1        0.000
     64 H         -10.0930    3.5580   23.0120 H         1 SUB1        0.000
     65 H          -9.6810    4.0660   24.6840 H         1 SUB1        0.000
     66 H          -8.5110    1.6810   23.1600 H         1 SUB1        0.000
     67 H          -9.6930    1.6010   24.5100 H         1 SUB1        0.000
     68 H          -8.0290    2.5040   26.0630 H         1 SUB1        0.000
     69 H          -7.3490    1.0750   25.2120 H         1 SUB1        0.000
@<TRIPOS>BOND
     1   15   14 1  
     2   16   15 1  
     3   16   17 2  
     4    1    2 2  
     5    1    3 2  
     6    1    5 1  
     7   14    1 1  
     8    5    6 ar 
     9    6    7 ar 
    10    7   13 ar 
    11    8    9 ar 
    12   13    8 ar 
    13    9   10 ar 
    14   11   10 ar 
    15   12   11 ar 
    16   13   12 ar 
    17   19   18 1  
    18   18   28 2  
    19   18   32 am 
    20   19   20 1  
    21   29   19 1  
    22   20   21 1  
    23   21   22 ar 
    24   22   24 ar 
    25   21   23 ar 
    26   23   25 ar 
    27   24   26 ar 
    28   25   26 ar 
    29   26   27 1  
    30   27   30 ar 
    31   27   31 ar 
    32   29   16 am 
    33   32   33 1  
    34   32   37 1  
    35   33   34 1  
    36   34   35 1  
    37   35   36 1  
    38   36   37 1  
    39   12    4 ar 
    40    5    4 ar 
    41   14   38 1  
    42   15   39 1  
    43   15   40 1  
    44    4   41 1  
    45    6   42 1  
    46    7   43 1  
    47    8   44 1  
    48    9   45 1  
    49   10   46 1  
    50   11   47 1  
    51   19   48 1  
    52   20   49 1  
    53   20   50 1  
    54   22   51 1  
    55   23   52 1  
    56   24   53 1  
    57   25   54 1  
    58   29   55 1  
    59   30   56 1  
    60   30   57 1  
    61   31   58 1  
    62   31   59 1  
    63   33   60 1  
    64   33   61 1  
    65   34   62 1  
    66   34   63 1  
    67   35   64 1  
    68   35   65 1  
    69   36   66 1  
    70   36   67 1  
    71   37   68 1  
    72   37   69 1  
@<TRIPOS>SUBSTRUCTURE
     1 SUB1        1 GROUP

### 
### Created by X-TOOL on Tue Dec  2 13:04:55 2003
### 

@<TRIPOS>MOLECULE
1ppc-ligand.1ppc.099
   69    72     1     0     0
SMALL
MMFF94_CHARGES


@<TRIPOS>ATOM
      1 S          -9.2150   10.0870   31.2440 S.o2      1 SUB1        1.447
      2 O1        -10.6660   10.1280   30.7480 O.2       1 SUB1       -0.650
      3 O2         -8.7500   11.4980   31.5960 O.2       1 SUB1       -0.650
      4 C1         -8.4050    8.0800   29.4780 C.ar      1 SUB1       -0.150
      5 C2         -8.2140    9.3520   29.9500 C.ar      1 SUB1       -0.009
      6 C3         -7.1780   10.0960   29.4560 C.ar      1 SUB1       -0.150
      7 C4         -6.3080    9.5500   28.5410 C.ar      1 SUB1       -0.150
      8 C5         -5.6320    7.7550   27.1500 C.ar      1 SUB1       -0.150
      9 C6         -5.8470    6.4820   26.6530 C.ar      1 SUB1       -0.150
     10 C7         -6.9050    5.7240   27.1200 C.ar      1 SUB1       -0.150
     11 C8         -7.7630    6.2300   28.0830 C.ar      1 SUB1       -0.150
     12 C9         -7.5670    7.5190   28.5380 C.ar      1 SUB1        0.000
     13 C10        -6.5090    8.2670   28.0840 C.ar      1 SUB1        0.000
     14 N          -9.1200    9.3040   32.7040 N.am      1 SUB1       -0.914
     15 CA         -7.7880    9.2780   33.2590 C.3       1 SUB1        0.417
     16 C          -6.9390    8.1040   32.7880 C.2       1 SUB1        0.569
     17 O          -7.4280    7.1050   32.2460 O.2       1 SUB1       -0.570
     18 C          -3.2630    8.0320   33.2830 C.2       1 SUB1        0.569
     19 CA         -4.5550    7.3650   32.8120 C.3       1 SUB1        0.361
     20 CB         -4.7290    5.9980   33.4930 C.3       1 SUB1        0.144
     21 CG         -4.8380    4.8510   32.5090 C.ar      1 SUB1       -0.144
     22 CD1        -5.5510    4.9980   31.3330 C.ar      1 SUB1       -0.150
     23 CD2        -4.1480    3.6840   32.7450 C.ar      1 SUB1       -0.150
     24 CE1        -5.6060    3.9700   30.4110 C.ar      1 SUB1       -0.150
     25 CE2        -4.2110    2.6590   31.8220 C.ar      1 SUB1       -0.150
     26 CZ         -4.9200    2.7920   30.6350 C.ar      1 SUB1       -0.022
     27 CF         -4.9050    1.7580   29.6880 C.cat     1 SUB1        0.731
     28 O          -3.2180    8.6140   34.3720 O.2       1 SUB1       -0.570
     29 N          -5.6510    8.2660   33.1380 N.am      1 SUB1       -0.730
     30 NG1        -4.1070    1.8250   28.6060 N.pl3     1 SUB1       -1.192
     31 NG2        -5.6560    0.6750   29.9190 N.pl3     1 SUB1       -1.192
     32 N1         -2.1730    7.9640   32.5010 N.am      1 SUB1       -0.660
     33 C2         -2.0990    7.1280   31.3140 C.3       1 SUB1        0.300
     34 C3         -1.7760    8.0320   30.1480 C.3       1 SUB1        0.000
     35 C4         -0.3860    8.6020   30.3820 C.3       1 SUB1        0.000
     36 C5         -0.4440    9.3870   31.6900 C.3       1 SUB1        0.000
     37 C6         -0.8910    8.5480   32.8700 C.3       1 SUB1        0.300
     38 H          -9.9100    8.8880   33.1550 H         1 SUB1        0.420
     39 HA1        -7.2770   10.2100   32.9750 H         1 SUB1        0.000
     40 HA2        -7.8710    9.2260   34.3550 H         1 SUB1        0.000
     41 H          -9.2380    7.4980   29.8550 H         1 SUB1        0.150
     42 H          -7.0430   11.1190   29.7850 H         1 SUB1        0.150
     43 H          -5.4650   10.1280   28.1810 H         1 SUB1        0.150
     44 H          -4.7860    8.3410   26.8100 H         1 SUB1        0.150
     45 H          -5.1850    6.0780   25.8950 H         1 SUB1        0.150
     46 H          -7.0640    4.7250   26.7290 H         1 SUB1        0.150
     47 H          -8.5730    5.6250   28.4730 H         1 SUB1        0.150
     48 H          -4.5170    7.2150   31.7230 H         1 SUB1        0.000
     49 H          -5.6450    6.0240   34.1010 H         1 SUB1        0.000
     50 H          -3.8620    5.8180   34.1450 H         1 SUB1        0.000
     51 H          -6.0710    5.9280   31.1320 H         1 SUB1        0.150
     52 H          -3.5590    3.5710   33.6480 H         1 SUB1        0.150
     53 H          -6.1910    4.0890   29.5060 H         1 SUB1        0.150
     54 H          -3.6950    1.7290   32.0290 H         1 SUB1        0.150
     55 H          -5.4250    9.0820   33.6710 H         1 SUB1        0.370
     56 H          -4.4100    2.3510   27.7740 H         1 SUB1        0.669
     57 H          -3.1940    1.3500   28.6100 H         1 SUB1        0.669
     58 H          -5.7440   -0.0550   29.1980 H         1 SUB1        0.669
     59 H          -6.1450    0.5700   30.8190 H         1 SUB1        0.669
     60 H          -3.0640    6.6260   31.1460 H         1 SUB1        0.000
     61 H          -1.3100    6.3710   31.4350 H         1 SUB1        0.000
     62 H          -2.5120    8.8470   30.0900 H         1 SUB1        0.000
     63 H          -1.7920    7.4560   29.2110 H         1 SUB1        0.000
     64 H          -0.1050    9.2690   29.5540 H         1 SUB1        0.000
     65 H           0.3490    7.7880   30.4620 H         1 SUB1        0.000
     66 H          -1.1490   10.2210   31.5670 H         1 SUB1        0.000
     67 H           0.5600    9.7840   31.9050 H         1 SUB1        0.000
     68 H          -0.1560    7.7550   33.0720 H         1 SUB1        0.000
     69 H          -1.0040    9.1800   33.7630 H         1 SUB1        0.000
@<TRIPOS>BOND
     1   15   14 1  
     2   16   15 1  
     3   16   17 2  
     4    1    2 2  
     5    1    3 2  
     6    1    5 1  
     7   14    1 1  
     8    5    6 ar 
     9    6    7 ar 
    10    7   13 ar 
    11    8    9 ar 
    12   13    8 ar 
    13    9   10 ar 
    14   11   10 ar 
    15   12   11 ar 
    16   13   12 ar 
    17   19   18 1  
    18   18   28 2  
    19   18   32 am 
    20   19   20 1  
    21   29   19 1  
    22   20   21 1  
    23   21   22 ar 
    24   22   24 ar 
    25   21   23 ar 
    26   23   25 ar 
    27   24   26 ar 
    28   25   26 ar 
    29   26   27 1  
    30   27   30 ar 
    31   27   31 ar 
    32   29   16 am 
    33   32   33 1  
    34   32   37 1  
    35   33   34 1  
    36   34   35 1  
    37   35   36 1  
    38   36   37 1  
    39   12    4 ar 
    40    5    4 ar 
    41   14   38 1  
    42   15   39 1  
    43   15   40 1  
    44    4   41 1  
    45    6   42 1  
    46    7   43 1  
    47    8   44 1  
    48    9   45 1  
    49   10   46 1  
    50   11   47 1  
    51   19   48 1  
    52   20   49 1  
    53   20   50 1  
    54   22   51 1  
    55   23   52 1  
    56   24   53 1  
    57   25   54 1  
    58   29   55 1  
    59   30   56 1  
    60   30   57 1  
    61   31   58 1  
    62   31   59 1  
    63   33   60 1  
    64   33   61 1  
    65   34   62 1  
    66   34   63 1  
    67   35   64 1  
    68   35   65 1  
    69   36   66 1  
    70   36   67 1  
    71   37   68 1  
    72   37   69 1  
@<TRIPOS>SUBSTRUCTURE
     1 SUB1        1 GROUP

### 
### Created by X-TOOL on Tue Dec  2 13:04:55 2003
### 

@<TRIPOS>MOLECULE
1ppc-ligand.1ppc.100
   69    72     1     0     0
SMALL
MMFF94_CHARGES


@<TRIPOS>ATOM
      1 S          -1.9660    4.7250   26.5510 S.o2      1 SUB1        1.447
      2 O1         -1.9540    6.1330   27.1590 O.2       1 SUB1       -0.650
      3 O2         -0.9520    3.8420   27.2730 O.2       1 SUB1       -0.650
      4 C1         -2.5390    5.1940   23.8580 C.ar      1 SUB1       -0.150
      5 C2         -1.5980    4.8800   24.8030 C.ar      1 SUB1       -0.009
      6 C3         -0.3170    4.6180   24.4030 C.ar      1 SUB1       -0.150
      7 C4          0.0040    4.6130   23.0650 C.ar      1 SUB1       -0.150
      8 C5         -0.5980    4.9310   20.7960 C.ar      1 SUB1       -0.150
      9 C6         -1.5420    5.2800   19.8480 C.ar      1 SUB1       -0.150
     10 C7         -2.8360    5.5750   20.2340 C.ar      1 SUB1       -0.150
     11 C8         -3.2000    5.5320   21.5710 C.ar      1 SUB1       -0.150
     12 C9         -2.2370    5.2280   22.5130 C.ar      1 SUB1        0.000
     13 C10        -0.9550    4.9220   22.1280 C.ar      1 SUB1        0.000
     14 N          -3.4030    3.9610   26.8770 N.am      1 SUB1       -0.914
     15 CA         -3.4620    2.6070   26.3830 C.3       1 SUB1        0.417
     16 C          -3.4960    1.5460   27.4760 C.2       1 SUB1        0.569
     17 O          -4.3640    0.6660   27.5220 O.2       1 SUB1       -0.570
     18 C          -0.7460    0.9530   29.7680 C.2       1 SUB1        0.569
     19 CA         -2.2610    0.9360   29.5580 C.3       1 SUB1        0.361
     20 CB         -2.9810    1.4500   30.8150 C.3       1 SUB1        0.144
     21 CG         -2.9150    2.9560   30.9680 C.ar      1 SUB1       -0.144
     22 CD1        -1.7920    3.5600   31.5060 C.ar      1 SUB1       -0.150
     23 CD2        -3.9410    3.7340   30.4850 C.ar      1 SUB1       -0.150
     24 CE1        -1.7100    4.9360   31.5960 C.ar      1 SUB1       -0.150
     25 CE2        -3.8550    5.1080   30.5830 C.ar      1 SUB1       -0.150
     26 CZ         -2.7330    5.7300   31.1180 C.ar      1 SUB1       -0.022
     27 CF         -2.6490    7.1300   31.1380 C.cat     1 SUB1        0.731
     28 O          -0.0680    1.9020   29.3600 O.2       1 SUB1       -0.570
     29 N          -2.5460    1.7730   28.4010 N.am      1 SUB1       -0.730
     30 NG1        -2.3620    7.8190   30.0180 N.pl3     1 SUB1       -1.192
     31 NG2        -2.9240    7.7670   32.2820 N.pl3     1 SUB1       -1.192
     32 N1         -0.1680   -0.0710   30.4160 N.am      1 SUB1       -0.660
     33 C2         -0.9260   -1.1090   31.0960 C.3       1 SUB1        0.300
     34 C3         -0.5150   -2.4320   30.4930 C.3       1 SUB1        0.000
     35 C4          0.9520   -2.6530   30.8290 C.3       1 SUB1        0.000
     36 C5          1.7280   -1.4960   30.2060 C.3       1 SUB1        0.000
     37 C6          1.2620   -0.1370   30.6840 C.3       1 SUB1        0.300
     38 H          -4.1560    4.3980   27.3690 H         1 SUB1        0.420
     39 HA1        -4.3700    2.5010   25.7710 H         1 SUB1        0.000
     40 HA2        -2.5750    2.4290   25.7570 H         1 SUB1        0.000
     41 H          -3.5500    5.4230   24.1760 H         1 SUB1        0.150
     42 H           0.4480    4.4130   25.1430 H         1 SUB1        0.150
     43 H           1.0120    4.3650   22.7500 H         1 SUB1        0.150
     44 H           0.4100    4.6680   20.4960 H         1 SUB1        0.150
     45 H          -1.2670    5.3210   18.8000 H         1 SUB1        0.150
     46 H          -3.5730    5.8430   19.4850 H         1 SUB1        0.150
     47 H          -4.2220    5.7330   21.8710 H         1 SUB1        0.150
     48 H          -2.5930   -0.0930   29.3550 H         1 SUB1        0.000
     49 H          -2.5150    0.9880   31.6980 H         1 SUB1        0.000
     50 H          -4.0380    1.1500   30.7600 H         1 SUB1        0.000
     51 H          -0.9700    2.9480   31.8600 H         1 SUB1        0.150
     52 H          -4.8100    3.2720   30.0310 H         1 SUB1        0.150
     53 H          -0.8370    5.3940   32.0450 H         1 SUB1        0.150
     54 H          -4.6810    5.7160   30.2340 H         1 SUB1        0.150
     55 H          -1.9840    2.5910   28.2830 H         1 SUB1        0.370
     56 H          -2.5210    7.3910   29.0940 H         1 SUB1        0.669
     57 H          -1.9840    8.7750   30.0840 H         1 SUB1        0.669
     58 H          -3.7610    8.3620   32.3520 H         1 SUB1        0.669
     59 H          -2.2980    7.6610   33.0930 H         1 SUB1        0.669
     60 H          -2.0040   -0.9460   30.9490 H         1 SUB1        0.000
     61 H          -0.6970   -1.0980   32.1720 H         1 SUB1        0.000
     62 H          -0.6500   -2.4050   29.4020 H         1 SUB1        0.000
     63 H          -1.1230   -3.2430   30.9180 H         1 SUB1        0.000
     64 H           1.2970   -3.6090   30.4100 H         1 SUB1        0.000
     65 H           1.0930   -2.6580   31.9190 H         1 SUB1        0.000
     66 H           1.6070   -1.5430   29.1140 H         1 SUB1        0.000
     67 H           2.7920   -1.6110   30.4620 H         1 SUB1        0.000
     68 H           1.4510   -0.0280   31.7630 H         1 SUB1        0.000
     69 H           1.7880    0.6590   30.1380 H         1 SUB1        0.000
@<TRIPOS>BOND
     1   15   14 1  
     2   16   15 1  
     3   16   17 2  
     4    1    2 2  
     5    1    3 2  
     6    1    5 1  
     7   14    1 1  
     8    5    6 ar 
     9    6    7 ar 
    10    7   13 ar 
    11    8    9 ar 
    12   13    8 ar 
    13    9   10 ar 
    14   11   10 ar 
    15   12   11 ar 
    16   13   12 ar 
    17   19   18 1  
    18   18   28 2  
    19   18   32 am 
    20   19   20 1  
    21   29   19 1  
    22   20   21 1  
    23   21   22 ar 
    24   22   24 ar 
    25   21   23 ar 
    26   23   25 ar 
    27   24   26 ar 
    28   25   26 ar 
    29   26   27 1  
    30   27   30 ar 
    31   27   31 ar 
    32   29   16 am 
    33   32   33 1  
    34   32   37 1  
    35   33   34 1  
    36   34   35 1  
    37   35   36 1  
    38   36   37 1  
    39   12    4 ar 
    40    5    4 ar 
    41   14   38 1  
    42   15   39 1  
    43   15   40 1  
    44    4   41 1  
    45    6   42 1  
    46    7   43 1  
    47    8   44 1  
    48    9   45 1  
    49   10   46 1  
    50   11   47 1  
    51   19   48 1  
    52   20   49 1  
    53   20   50 1  
    54   22   51 1  
    55   23   52 1  
    56   24   53 1  
    57   25   54 1  
    58   29   55 1  
    59   30   56 1  
    60   30   57 1  
    61   31   58 1  
    62   31   59 1  
    63   33   60 1  
    64   33   61 1  
    65   34   62 1  
    66   34   63 1  
    67   35   64 1  
    68   35   65 1  
    69   36   66 1  
    70   36   67 1  
    71   37   68 1  
    72   37   69 1  
@<TRIPOS>SUBSTRUCTURE
     1 SUB1        1 GROUP

