#	Name:			1c14_cofactor
#	Creating user name:	arthur
#	Creation time:		Mon Dec  1 21:14:33 2003

#	Modifying user name:	arthur
#	Modification time:	Tue Dec  2 10:03:42 2003

@<TRIPOS>MOLECULE
1c14_cofactor
   70    74     1     1     1
SMALL
MMFF94_CHARGES


@<TRIPOS>ATOM
      1 AP          7.5960   15.1140  137.6420 P.3       1 NAD501      1.4424 
      2 AO1         6.3670   14.2670  137.5770 O.2       1 NAD501     -0.9500 
      3 AO2         8.8920   14.5670  137.1800 O.2       1 NAD501     -0.9500 
      4 AO5'        7.9000   15.5650  139.1650 O.3       1 NAD501     -0.5512 
      5 AC5'        6.8070   15.8240  140.0680 C.3       1 NAD501      0.2800 
      6 AC4'        7.4000   15.4560  141.4310 C.3       1 NAD501      0.2800 
      7 AO4'        6.5440   15.9070  142.5150 O.3       1 NAD501     -0.5600 
      8 AC3'        7.4800   13.9340  141.5200 C.3       1 NAD501      0.2800 
      9 AO3'        8.7550   13.4910  141.9610 O.3       1 NAD501     -0.6800 
     10 AC2'        6.4090   13.5460  142.5300 C.3       1 NAD501      0.2800 
     11 AO2'        6.9760   12.3800  143.1320 O.3       1 NAD501     -0.6800 
     12 AC1'        6.4530   14.8070  143.4000 C.3       1 NAD501      0.5356 
     13 AN9         5.3420   15.0350  144.3320 N.3       1 NAD501      0.0476 
     14 AC8         4.0480   15.3410  144.0920 C.2       1 NAD501      0.0365 
     15 AN7         3.2970   15.1420  145.1960 N.2       1 NAD501     -0.5653 
     16 AC5         4.1930   14.7070  146.1060 C.ar      1 NAD501      0.2272 
     17 AC6         3.9880   14.5920  147.5010 C.ar      1 NAD501      0.4100 
     18 AN6         2.7740   14.5290  147.9930 N.pl3     1 NAD501     -0.9000 
     19 AN1         5.0780   14.4660  148.2990 N.ar      1 NAD501     -0.6200 
     20 AC2         6.3140   14.4120  147.7500 C.ar      1 NAD501      0.4700 
     21 AN3         6.5310   14.4900  146.4300 N.ar      1 NAD501     -0.5670 
     22 AC4         5.4810   14.6700  145.5950 C.ar      1 NAD501      0.1054 
     23 O3          7.1830   16.5270  136.9090 O.3       1 NAD501     -0.5424 
     24 NP          7.9450   17.9280  136.6510 P.3       1 NAD501      1.4424 
     25 NO1         7.2440   18.5320  135.5140 O.2       1 NAD501     -0.9500 
     26 NO2         9.3930   17.6360  136.6030 O.2       1 NAD501     -0.9500 
     27 NO5'        7.5900   18.9230  137.8750 O.3       1 NAD501     -0.5512 
     28 NC5'        8.5560   19.2690  138.8730 C.3       1 NAD501      0.2800 
     29 NC4'        8.1340   20.6120  139.3960 C.3       1 NAD501      0.2800 
     30 NO4'        8.3680   21.5070  138.3020 O.3       1 NAD501     -0.5600 
     31 NC3'        6.6430   20.8180  139.7030 C.3       1 NAD501      0.2800 
     32 NO3'        6.4160   21.8670  140.6690 O.3       1 NAD501     -0.6800 
     33 NC2'        6.0800   21.4220  138.4150 C.3       1 NAD501      0.2800 
     34 NO2'        4.9310   22.2410  138.6120 O.3       1 NAD501     -0.6800 
     35 NC1'        7.1930   22.3230  138.0420 C.3       1 NAD501      0.7680 
     36 NN1         7.0210   22.8550  136.6790 N.ar      1 NAD501     -0.2100 
     37 NC2         6.8410   21.9550  135.6040 C.ar      1 NAD501      0.2110 
     38 NC3         6.9050   22.3960  134.2810 C.ar      1 NAD501      0.0862 
     39 NC7         6.9660   21.3600  133.1600 C.2       1 NAD501      0.5438 
     40 NO7         6.5600   21.6570  132.0470 O.2       1 NAD501     -0.5700 
     41 NN7         7.4660   20.1590  133.4200 N.am      1 NAD501     -0.8000 
     42 NC4         7.0670   23.7630  134.0320 C.ar      1 NAD501     -0.1500 
     43 NC5         7.1800   24.6840  135.0880 C.ar      1 NAD501     -0.1500 
     44 NC6         7.1930   24.2370  136.4020 C.ar      1 NAD501      0.2110 
     45 H1          6.5119   16.8835  140.0489 H         1 NAD501      0.0000 
     46 H2          5.9384   15.1886  139.8408 H         1 NAD501      0.0000 
     47 H3          8.3959   15.9088  141.5452 H         1 NAD501      0.0000 
     48 H4          7.2772   13.4794  140.5391 H         1 NAD501      0.0000 
     49 H5          8.7561   12.5418  142.0003 H         1 NAD501      0.4000 
     50 H6          5.4154   13.3543  142.0988 H         1 NAD501      0.0000 
     51 H7          6.3768   12.0496  143.7910 H         1 NAD501      0.4000 
     52 H8          7.3731   14.7419  143.9992 H         1 NAD501      0.0000 
     53 H9          3.6634   15.6992  143.1382 H         1 NAD501      0.1500 
     54 H10         2.6342   14.4453  149.0100 H         1 NAD501      0.4000 
     55 H11         1.9603   14.5632  147.3624 H         1 NAD501      0.4000 
     56 H12         7.1678   14.3005  148.4086 H         1 NAD501      0.1500 
     57 H13         8.5534   18.5326  139.6901 H         1 NAD501      0.0000 
     58 H14         9.5622   19.3387  138.4341 H         1 NAD501      0.0000 
     59 H15         8.7395   20.8765  140.2754 H         1 NAD501      0.0000 
     60 H16         6.1527   19.8830  140.0115 H         1 NAD501      0.0000 
     61 H17         5.4819   21.9510  140.8206 H         1 NAD501      0.4000 
     62 H18         5.8784   20.6392  137.6690 H         1 NAD501      0.0000 
     63 H19         4.6427   22.5768  137.7714 H         1 NAD501      0.4000 
     64 H20         7.2016   23.1835  138.7271 H         1 NAD501      0.0000 
     65 H21         6.6506   20.9079  135.8097 H         1 NAD501      0.1500 
     66 H22         7.5129   19.4697  132.6970 H         1 NAD501      0.3700 
     67 H23         7.7960   19.9430  134.3389 H         1 NAD501      0.3700 
     68 H24         7.1060   24.1177  133.0084 H         1 NAD501      0.1500 
     69 H25         7.2571   25.7443  134.8759 H         1 NAD501      0.1500 
     70 H26         7.3340   24.9408  137.2143 H         1 NAD501      0.1500 
@<TRIPOS>BOND
     1    1   23 1    
     2    1    4 1    
     3    1    3 2    
     4    1    2 2    
     5    4    5 1    
     6    5    6 1    
     7    6    8 1    
     8    6    7 1    
     9    7   12 1    
    10   12   13 1    
    11   12   10 1    
    12   10   11 1    
    13   10    8 1    
    14    8    9 1    
    15   13   22 1    
    16   13   14 1    
    17   14   15 2    
    18   15   16 1    
    19   16   22 ar   
    20   16   17 ar   
    21   17   19 ar   
    22   17   18 1    
    23   19   20 ar   
    24   20   21 ar   
    25   21   22 ar   
    26   23   24 1    
    27   24   27 1    
    28   24   26 2    
    29   24   25 2    
    30   27   28 1    
    31   28   29 1    
    32   29   31 1    
    33   29   30 1    
    34   30   35 1    
    35   35   36 1    
    36   35   33 1    
    37   33   34 1    
    38   33   31 1    
    39   31   32 1    
    40   36   44 ar   
    41   36   37 ar   
    42   37   38 ar   
    43   38   42 ar   
    44   38   39 1    
    45   39   41 am   
    46   39   40 2    
    47   42   43 ar   
    48   43   44 ar   
    49    5   45 1    
    50    5   46 1    
    51    6   47 1    
    52    8   48 1    
    53    9   49 1    
    54   10   50 1    
    55   11   51 1    
    56   12   52 1    
    57   14   53 1    
    58   18   54 1    
    59   18   55 1    
    60   20   56 1    
    61   28   57 1    
    62   28   58 1    
    63   29   59 1    
    64   31   60 1    
    65   32   61 1    
    66   33   62 1    
    67   34   63 1    
    68   35   64 1    
    69   37   65 1    
    70   41   66 1    
    71   41   67 1    
    72   42   68 1    
    73   43   69 1    
    74   44   70 1    
@<TRIPOS>SUBSTRUCTURE
     1 NAD501      1 GROUP             0 A     ****    0 ROOT 
@<TRIPOS>SET
UNK_ATOMS       STATIC     ATOMS    AMSOM    **** Atom types guessed for these atoms
40 1 2 3 4 7 9 11 13 15 18 19 21 23 28 29 31 33 35 36 \
 37 38 39 41 42 43 44 0 0 0 0 0 0 0 0 0 0 0 \
 0 0 0
@<TRIPOS>NORMAL
