#	Name:			1c14_ligand
#	Creating user name:	arthur
#	Creation time:		Tue Dec  2 09:51:50 2003

#	Modifying user name:	arthur
#	Modification time:	Tue Dec  2 09:58:58 2003

@<TRIPOS>MOLECULE
1c14_ligand
   24    25     1     0     1
SMALL
MMFF94_CHARGES


@<TRIPOS>ATOM
      1 C1          3.2070   23.0950  134.2020 C.ar      1 TCL502     -0.1500 
      2 C2          3.3860   22.4660  132.9630 C.ar      1 TCL502      0.1770 
      3 C6          3.2250   22.3210  135.3850 C.ar      1 TCL502      0.0825 
      4 C5          3.4200   20.9490  135.3160 C.ar      1 TCL502      0.0825 
      5 C4          3.5940   20.3170  134.0830 C.ar      1 TCL502     -0.1500 
      6 C3          3.5710   21.0850  132.8990 C.ar      1 TCL502     -0.1500 
      7 C11         0.0820   18.6000  138.2000 C.ar      1 TCL502      0.1770 
      8 C10         1.3590   18.3310  138.7610 C.ar      1 TCL502     -0.1500 
      9 C9          2.5070   18.8940  138.1790 C.ar      1 TCL502      0.1770 
     10 C8          2.3740   19.7320  137.0330 C.ar      1 TCL502      0.0825 
     11 C12        -0.0480   19.4350  137.0600 C.ar      1 TCL502     -0.1500 
     12 C13         1.1000   20.0010  136.4770 C.ar      1 TCL502     -0.1500 
     13 O7          3.5100   20.2460  136.4780 O.3       1 TCL502     -0.1650 
     14 CL14        3.3890   23.3920  131.5180 Cl        1 TCL502     -0.1770 
     15 CL15       -1.3260   17.8840  138.9020 Cl        1 TCL502     -0.1770 
     16 CL16        4.0650   18.5300  138.8380 Cl        1 TCL502     -0.1770 
     17 O17         3.0190   22.8910  136.6190 O.3       1 TCL502     -0.5325 
     18 H1          3.0558   24.1672  134.2532 H         1 TCL502      0.1500 
     19 H2          3.7456   19.2447  134.0355 H         1 TCL502      0.1500 
     20 H3          3.6974   20.6004  131.9376 H         1 TCL502      0.1500 
     21 H4          1.4473   17.6944  139.6339 H         1 TCL502      0.1500 
     22 H5         -1.0272   19.6356  136.6406 H         1 TCL502      0.1500 
     23 H6          1.0098   20.6401  135.6061 H         1 TCL502      0.1500 
     24 H7          2.9019   23.8276  136.5114 H         1 TCL502      0.4500 
@<TRIPOS>BOND
     1    1    2 ar   
     2    1    3 ar   
     3    3   17 1    
     4    3    4 ar   
     5    4   13 1    
     6    4    5 ar   
     7    5    6 ar   
     8    6    2 ar   
     9    2   14 1    
    10   13   10 1    
    11   10    9 ar   
    12   10   12 ar   
    13   12   11 ar   
    14   11    7 ar   
    15    7   15 1    
    16    7    8 ar   
    17    8    9 ar   
    18    9   16 1    
    19    1   18 1    
    20    5   19 1    
    21    6   20 1    
    22    8   21 1    
    23   11   22 1    
    24   12   23 1    
    25   17   24 1    
@<TRIPOS>SUBSTRUCTURE
     1 TCL502      1 GROUP             0 A     ****    0 ROOT 
@<TRIPOS>SET
UNK_ATOMS       STATIC     ATOMS    AMSOM    **** Atom types guessed for these atoms
14 1 2 3 4 5 6 7 8 9 10 11 12 13 17
